                                  MODFLOW-2005     
      U.S. GEOLOGICAL SURVEY MODULAR FINITE-DIFFERENCE GROUND-WATER FLOW MODEL
                            VERSION 1.12.00 2/3/2017

 LIST FILE: Tutorial02.list
                         UNIT    2

 OPENING Tutorial02.dis
 FILE TYPE:DIS   UNIT   11   STATUS:OLD    
 FORMAT:FORMATTED              ACCESS:SEQUENTIAL          

 OPENING Tutorial02.bas
 FILE TYPE:BAS6   UNIT   13   STATUS:OLD    
 FORMAT:FORMATTED              ACCESS:SEQUENTIAL          

 OPENING Tutorial02.lpf
 FILE TYPE:LPF   UNIT   15   STATUS:OLD    
 FORMAT:FORMATTED              ACCESS:SEQUENTIAL          

 OPENING Tutorial02.pcg
 FILE TYPE:PCG   UNIT   27   STATUS:OLD    
 FORMAT:FORMATTED              ACCESS:SEQUENTIAL          

 OPENING Tutorial02.ghb
 FILE TYPE:GHB   UNIT   23   STATUS:OLD    
 FORMAT:FORMATTED              ACCESS:SEQUENTIAL          

 OPENING Tutorial02.wel
 FILE TYPE:WEL   UNIT   20   STATUS:OLD    
 FORMAT:FORMATTED              ACCESS:SEQUENTIAL          

 OPENING Tutorial02.oc
 FILE TYPE:OC   UNIT   14   STATUS:OLD    
 FORMAT:FORMATTED              ACCESS:SEQUENTIAL          

 OPENING Tutorial02.cbc
 FILE TYPE:DATA(BINARY)   UNIT   53   STATUS:REPLACE
 FORMAT:UNFORMATTED            ACCESS:STREAM              

 OPENING Tutorial02.hds
 FILE TYPE:DATA(BINARY)   UNIT   51   STATUS:REPLACE
 FORMAT:UNFORMATTED            ACCESS:STREAM              

 OPENING Tutorial02.ddn
 FILE TYPE:DATA(BINARY)   UNIT   52   STATUS:REPLACE
 FORMAT:UNFORMATTED            ACCESS:STREAM              

 BAS -- BASIC PACKAGE, VERSION 7, 5/2/2005 INPUT READ FROM UNIT   13
 
 MODFLOW was compiled using mixed precision
 Precision of REAL variables:           6
 Precision of DOUBLE PRECISION variables:          15

 DISCRETIZATION INPUT DATA READ FROM UNIT   11
 # DIS package for  MODFLOW-2005, generated by Flopy.
    5 LAYERS        10 ROWS        10 COLUMNS
    3 STRESS PERIOD(S) IN SIMULATION
 MODEL TIME UNIT IS DAYS
 MODEL LENGTH UNIT IS METERS
  Confining bed flag for each layer:
   0   0   0   0   0

                     DELR =   100.000    

                     DELC =   100.000    

 TOP ELEVATION OF LAYER 1 =   10.0000    

   MODEL LAYER BOTTOM EL. =  -2.00000     FOR LAYER   1

   MODEL LAYER BOTTOM EL. =  -14.0000     FOR LAYER   2

   MODEL LAYER BOTTOM EL. =  -26.0000     FOR LAYER   3

   MODEL LAYER BOTTOM EL. =  -38.0000     FOR LAYER   4

   MODEL LAYER BOTTOM EL. =  -50.0000     FOR LAYER   5


 STRESS PERIOD     LENGTH       TIME STEPS     MULTIPLIER FOR DELT    SS FLAG
 ----------------------------------------------------------------------------
        1         1.000000          1                    1.000         SS
        2         100.0000        100                    1.000         TR
        3         100.0000        100                    1.000         TR

 COMBINED STEADY-STATE AND TRANSIENT SIMULATION



 
 # BAS6 package for  MODFLOW-2005, generated by Flopy.                           
 THE FREE FORMAT OPTION HAS BEEN SELECTED



                     BOUNDARY ARRAY FOR LAYER   1
 READING ON UNIT   13 WITH FORMAT: (10I10)             



                     BOUNDARY ARRAY FOR LAYER   2
 READING ON UNIT   13 WITH FORMAT: (10I10)             



                     BOUNDARY ARRAY FOR LAYER   3
 READING ON UNIT   13 WITH FORMAT: (10I10)             



                     BOUNDARY ARRAY FOR LAYER   4
 READING ON UNIT   13 WITH FORMAT: (10I10)             



                     BOUNDARY ARRAY FOR LAYER   5
 READING ON UNIT   13 WITH FORMAT: (10I10)             

 AQUIFER HEAD WILL BE SET TO  -999.99     AT ALL NO-FLOW NODES (IBOUND=0).



                       INITIAL HEAD FOR LAYER   1
 READING ON UNIT   13 WITH FORMAT: (10E15.6)           



                       INITIAL HEAD FOR LAYER   2
 READING ON UNIT   13 WITH FORMAT: (10E15.6)           



                       INITIAL HEAD FOR LAYER   3
 READING ON UNIT   13 WITH FORMAT: (10E15.6)           



                       INITIAL HEAD FOR LAYER   4
 READING ON UNIT   13 WITH FORMAT: (10E15.6)           



                       INITIAL HEAD FOR LAYER   5
 READING ON UNIT   13 WITH FORMAT: (10E15.6)           
 # OC package for  MODFLOW-2005, generated by Flopy.

 OUTPUT CONTROL IS SPECIFIED ONLY AT TIME STEPS FOR WHICH OUTPUT IS DESIRED
 COMPACT CELL-BY-CELL BUDGET FILES WILL BE WRITTEN
 AUXILIARY DATA WILL BE SAVED IN CELL-BY-CELL BUDGET FILES
 HEAD PRINT FORMAT CODE IS   0    DRAWDOWN PRINT FORMAT CODE IS   0
 HEADS WILL BE SAVED ON UNIT   51    DRAWDOWNS WILL BE SAVED ON UNIT   52

 LPF -- LAYER-PROPERTY FLOW PACKAGE, VERSION 7, 5/2/2005
         INPUT READ FROM UNIT   15
 # LPF package for  MODFLOW-2005, generated by Flopy.
 CELL-BY-CELL FLOWS WILL BE SAVED ON UNIT   53
 HEAD AT CELLS THAT CONVERT TO DRY= -1.00000E+30
 No named parameters

   LAYER FLAGS:
 LAYER       LAYTYP        LAYAVG         CHANI        LAYVKA        LAYWET
 ---------------------------------------------------------------------------
    1             1             0     1.000E+00             0             0
    2             1             0     1.000E+00             0             0
    3             1             0     1.000E+00             0             0
    4             1             0     1.000E+00             0             0
    5             1             0     1.000E+00             0             0

   INTERPRETATION OF LAYER FLAGS:
                        INTERBLOCK     HORIZONTAL    DATA IN
         LAYER TYPE   TRANSMISSIVITY   ANISOTROPY   ARRAY VKA   WETTABILITY
 LAYER      (LAYTYP)      (LAYAVG)       (CHANI)      (LAYVKA)      (LAYWET)
 ---------------------------------------------------------------------------
    1   CONVERTIBLE      HARMONIC     1.000E+00    VERTICAL K  NON-WETTABLE
    2   CONVERTIBLE      HARMONIC     1.000E+00    VERTICAL K  NON-WETTABLE
    3   CONVERTIBLE      HARMONIC     1.000E+00    VERTICAL K  NON-WETTABLE
    4   CONVERTIBLE      HARMONIC     1.000E+00    VERTICAL K  NON-WETTABLE
    5   CONVERTIBLE      HARMONIC     1.000E+00    VERTICAL K  NON-WETTABLE

 WETTING CAPABILITY IS NOT ACTIVE IN ANY LAYER

    HYD. COND. ALONG ROWS =   1.00000     FOR LAYER   1

      VERTICAL HYD. COND. =   1.00000     FOR LAYER   1

         SPECIFIC STORAGE =  1.000000E-04 FOR LAYER   1

           SPECIFIC YIELD =  0.100000     FOR LAYER   1

    HYD. COND. ALONG ROWS =   1.00000     FOR LAYER   2

      VERTICAL HYD. COND. =   1.00000     FOR LAYER   2

         SPECIFIC STORAGE =  1.000000E-04 FOR LAYER   2

           SPECIFIC YIELD =  0.100000     FOR LAYER   2

    HYD. COND. ALONG ROWS =   1.00000     FOR LAYER   3

      VERTICAL HYD. COND. =   1.00000     FOR LAYER   3

         SPECIFIC STORAGE =  1.000000E-04 FOR LAYER   3

           SPECIFIC YIELD =  0.100000     FOR LAYER   3

    HYD. COND. ALONG ROWS =   1.00000     FOR LAYER   4

      VERTICAL HYD. COND. =   1.00000     FOR LAYER   4

         SPECIFIC STORAGE =  1.000000E-04 FOR LAYER   4

           SPECIFIC YIELD =  0.100000     FOR LAYER   4

    HYD. COND. ALONG ROWS =   1.00000     FOR LAYER   5

      VERTICAL HYD. COND. =   1.00000     FOR LAYER   5

         SPECIFIC STORAGE =  1.000000E-04 FOR LAYER   5

           SPECIFIC YIELD =  0.100000     FOR LAYER   5

 WEL -- WELL PACKAGE, VERSION 7, 5/2/2005 INPUT READ FROM UNIT   20
 # WEL package for  MODFLOW-2005, generated by Flopy.
 No named parameters
 MAXIMUM OF      1 ACTIVE WELLS AT ONE TIME


     0 Well parameters

 GHB -- GENERAL-HEAD BOUNDARY PACKAGE, VERSION 7, 5/2/2005
         INPUT READ FROM UNIT   23
 # GHB package for  MODFLOW-2005, generated by Flopy.
 No named parameters
 MAXIMUM OF    100 ACTIVE GHB CELLS AT ONE TIME


     0 GHB parameters

 PCG -- CONJUGATE-GRADIENT SOLUTION PACKAGE, VERSION 7, 5/2/2005
 # PCG package for  MODFLOW-2005, generated by Flopy.
 MAXIMUM OF     50 CALLS OF SOLUTION ROUTINE
 MAXIMUM OF     30 INTERNAL ITERATIONS PER CALL TO SOLUTION ROUTINE
 MATRIX PRECONDITIONING TYPE :    1



                                    SOLUTION BY THE CONJUGATE-GRADIENT METHOD
                                   -------------------------------------------
                    MAXIMUM NUMBER OF CALLS TO PCG ROUTINE =       50
                        MAXIMUM ITERATIONS PER CALL TO PCG =       30
                               MATRIX PRECONDITIONING TYPE =        1
        RELAXATION FACTOR (ONLY USED WITH PRECOND. TYPE 1) =    0.10000E+01
 PARAMETER OF POLYNOMIAL PRECOND. = 2 (2) OR IS CALCULATED :        0
                         HEAD CHANGE CRITERION FOR CLOSURE =    0.10000E-04
                     RESIDUAL CHANGE CRITERION FOR CLOSURE =    0.10000E-04
            PCG HEAD AND RESIDUAL CHANGE PRINTOUT INTERVAL =      999
     PRINTING FROM SOLVER IS LIMITED(1) OR SUPPRESSED (>1) =        3
                            STEADY-STATE DAMPING PARAMETER =    0.10000E+01
                               TRANSIENT DAMPING PARAMETER =    0.10000E+01
1
                            STRESS PERIOD NO.    1, LENGTH =   1.000000    
                            -----------------------------------------------

                              NUMBER OF TIME STEPS =     1

                               MULTIPLIER FOR DELT =     1.000

                            INITIAL TIME STEP SIZE =   1.000000    

 WELL NO.  LAYER   ROW   COL   STRESS RATE         
 --------------------------------------------------
      1      1      5      5       0.000    

      1 WELL 

 BOUND. NO. LAYER   ROW   COL     STAGE      CONDUCTANCE         
 ----------------------------------------------------------------
      1      1      1      1       10.00           6000.    
      2      1      1     10       10.00           6000.    
      3      1      2      1       10.00           6000.    
      4      1      2     10       10.00           6000.    
      5      1      3      1       10.00           6000.    
      6      1      3     10       10.00           6000.    
      7      1      4      1       10.00           6000.    
      8      1      4     10       10.00           6000.    
      9      1      5      1       10.00           6000.    
     10      1      5     10       10.00           6000.    
     11      1      6      1       10.00           6000.    
     12      1      6     10       10.00           6000.    
     13      1      7      1       10.00           6000.    
     14      1      7     10       10.00           6000.    
     15      1      8      1       10.00           6000.    
     16      1      8     10       10.00           6000.    
     17      1      9      1       10.00           6000.    
     18      1      9     10       10.00           6000.    
     19      1     10      1       10.00           6000.    
     20      1     10     10       10.00           6000.    
     21      2      1      1       10.00           6000.    
     22      2      1     10       10.00           6000.    
     23      2      2      1       10.00           6000.    
     24      2      2     10       10.00           6000.    
     25      2      3      1       10.00           6000.    
     26      2      3     10       10.00           6000.    
     27      2      4      1       10.00           6000.    
     28      2      4     10       10.00           6000.    
     29      2      5      1       10.00           6000.    
     30      2      5     10       10.00           6000.    
     31      2      6      1       10.00           6000.    
     32      2      6     10       10.00           6000.    
     33      2      7      1       10.00           6000.    
     34      2      7     10       10.00           6000.    
     35      2      8      1       10.00           6000.    
     36      2      8     10       10.00           6000.    
     37      2      9      1       10.00           6000.    
     38      2      9     10       10.00           6000.    
     39      2     10      1       10.00           6000.    
     40      2     10     10       10.00           6000.    
     41      3      1      1       10.00           6000.    
     42      3      1     10       10.00           6000.    
     43      3      2      1       10.00           6000.    
     44      3      2     10       10.00           6000.    
     45      3      3      1       10.00           6000.    
     46      3      3     10       10.00           6000.    
     47      3      4      1       10.00           6000.    
     48      3      4     10       10.00           6000.    
     49      3      5      1       10.00           6000.    
     50      3      5     10       10.00           6000.    
     51      3      6      1       10.00           6000.    
     52      3      6     10       10.00           6000.    
     53      3      7      1       10.00           6000.    
     54      3      7     10       10.00           6000.    
     55      3      8      1       10.00           6000.    
     56      3      8     10       10.00           6000.    
     57      3      9      1       10.00           6000.    
     58      3      9     10       10.00           6000.    
     59      3     10      1       10.00           6000.    
     60      3     10     10       10.00           6000.    
     61      4      1      1       10.00           6000.    
     62      4      1     10       10.00           6000.    
     63      4      2      1       10.00           6000.    
     64      4      2     10       10.00           6000.    
     65      4      3      1       10.00           6000.    
     66      4      3     10       10.00           6000.    
     67      4      4      1       10.00           6000.    
     68      4      4     10       10.00           6000.    
     69      4      5      1       10.00           6000.    
     70      4      5     10       10.00           6000.    
     71      4      6      1       10.00           6000.    
     72      4      6     10       10.00           6000.    
     73      4      7      1       10.00           6000.    
     74      4      7     10       10.00           6000.    
     75      4      8      1       10.00           6000.    
     76      4      8     10       10.00           6000.    
     77      4      9      1       10.00           6000.    
     78      4      9     10       10.00           6000.    
     79      4     10      1       10.00           6000.    
     80      4     10     10       10.00           6000.    
     81      5      1      1       10.00           6000.    
     82      5      1     10       10.00           6000.    
     83      5      2      1       10.00           6000.    
     84      5      2     10       10.00           6000.    
     85      5      3      1       10.00           6000.    
     86      5      3     10       10.00           6000.    
     87      5      4      1       10.00           6000.    
     88      5      4     10       10.00           6000.    
     89      5      5      1       10.00           6000.    
     90      5      5     10       10.00           6000.    
     91      5      6      1       10.00           6000.    
     92      5      6     10       10.00           6000.    
     93      5      7      1       10.00           6000.    
     94      5      7     10       10.00           6000.    
     95      5      8      1       10.00           6000.    
     96      5      8     10       10.00           6000.    
     97      5      9      1       10.00           6000.    
     98      5      9     10       10.00           6000.    
     99      5     10      1       10.00           6000.    
    100      5     10     10       10.00           6000.    

    100 GHB CELLS
 
 SOLVING FOR HEAD 

 OUTPUT CONTROL FOR STRESS PERIOD    1   TIME STEP    1
    SAVE HEAD FOR ALL LAYERS
    SAVE DRAWDOWN FOR ALL LAYERS
    SAVE BUDGET
    PRINT HEAD FOR ALL LAYERS
    PRINT BUDGET
 UBDSV2 SAVING "   CONSTANT HEAD" ON UNIT  53 AT TIME STEP  1, STRESS PERIOD   1
 UBDSV1 SAVING "FLOW RIGHT FACE " ON UNIT  53 AT TIME STEP  1, STRESS PERIOD   1
 UBDSV1 SAVING "FLOW FRONT FACE " ON UNIT  53 AT TIME STEP  1, STRESS PERIOD   1
 UBDSV1 SAVING "FLOW LOWER FACE " ON UNIT  53 AT TIME STEP  1, STRESS PERIOD   1
1
              HEAD IN LAYER   1 AT END OF TIME STEP   1 IN STRESS PERIOD    1
  ---------------------------------------------------------------------------

            1           2           3           4           5           6           7           8           9          10
 ........................................................................................................................
   1    10.00       10.00       10.00       10.00       10.00       10.00       10.00       10.00       10.00       10.00    
   2    10.00       10.00       10.00       10.00       10.00       10.00       10.00       10.00       10.00       10.00    
   3    10.00       10.00       10.00       10.00       10.00       10.00       10.00       10.00       10.00       10.00    
   4    10.00       10.00       10.00       10.00       10.00       10.00       10.00       10.00       10.00       10.00    
   5    10.00       10.00       10.00       10.00       10.00       10.00       10.00       10.00       10.00       10.00    
   6    10.00       10.00       10.00       10.00       10.00       10.00       10.00       10.00       10.00       10.00    
   7    10.00       10.00       10.00       10.00       10.00       10.00       10.00       10.00       10.00       10.00    
   8    10.00       10.00       10.00       10.00       10.00       10.00       10.00       10.00       10.00       10.00    
   9    10.00       10.00       10.00       10.00       10.00       10.00       10.00       10.00       10.00       10.00    
  10    10.00       10.00       10.00       10.00       10.00       10.00       10.00       10.00       10.00       10.00    
1
              HEAD IN LAYER   2 AT END OF TIME STEP   1 IN STRESS PERIOD    1
  ---------------------------------------------------------------------------

            1           2           3           4           5           6           7           8           9          10
 ........................................................................................................................
   1    10.00       10.00       10.00       10.00       10.00       10.00       10.00       10.00       10.00       10.00    
   2    10.00       10.00       10.00       10.00       10.00       10.00       10.00       10.00       10.00       10.00    
   3    10.00       10.00       10.00       10.00       10.00       10.00       10.00       10.00       10.00       10.00    
   4    10.00       10.00       10.00       10.00       10.00       10.00       10.00       10.00       10.00       10.00    
   5    10.00       10.00       10.00       10.00       10.00       10.00       10.00       10.00       10.00       10.00    
   6    10.00       10.00       10.00       10.00       10.00       10.00       10.00       10.00       10.00       10.00    
   7    10.00       10.00       10.00       10.00       10.00       10.00       10.00       10.00       10.00       10.00    
   8    10.00       10.00       10.00       10.00       10.00       10.00       10.00       10.00       10.00       10.00    
   9    10.00       10.00       10.00       10.00       10.00       10.00       10.00       10.00       10.00       10.00    
  10    10.00       10.00       10.00       10.00       10.00       10.00       10.00       10.00       10.00       10.00    
1
              HEAD IN LAYER   3 AT END OF TIME STEP   1 IN STRESS PERIOD    1
  ---------------------------------------------------------------------------

            1           2           3           4           5           6           7           8           9          10
 ........................................................................................................................
   1    10.00       10.00       10.00       10.00       10.00       10.00       10.00       10.00       10.00       10.00    
   2    10.00       10.00       10.00       10.00       10.00       10.00       10.00       10.00       10.00       10.00    
   3    10.00       10.00       10.00       10.00       10.00       10.00       10.00       10.00       10.00       10.00    
   4    10.00       10.00       10.00       10.00       10.00       10.00       10.00       10.00       10.00       10.00    
   5    10.00       10.00       10.00       10.00       10.00       10.00       10.00       10.00       10.00       10.00    
   6    10.00       10.00       10.00       10.00       10.00       10.00       10.00       10.00       10.00       10.00    
   7    10.00       10.00       10.00       10.00       10.00       10.00       10.00       10.00       10.00       10.00    
   8    10.00       10.00       10.00       10.00       10.00       10.00       10.00       10.00       10.00       10.00    
   9    10.00       10.00       10.00       10.00       10.00       10.00       10.00       10.00       10.00       10.00    
  10    10.00       10.00       10.00       10.00       10.00       10.00       10.00       10.00       10.00       10.00    
1
              HEAD IN LAYER   4 AT END OF TIME STEP   1 IN STRESS PERIOD    1
  ---------------------------------------------------------------------------

            1           2           3           4           5           6           7           8           9          10
 ........................................................................................................................
   1    10.00       10.00       10.00       10.00       10.00       10.00       10.00       10.00       10.00       10.00    
   2    10.00       10.00       10.00       10.00       10.00       10.00       10.00       10.00       10.00       10.00    
   3    10.00       10.00       10.00       10.00       10.00       10.00       10.00       10.00       10.00       10.00    
   4    10.00       10.00       10.00       10.00       10.00       10.00       10.00       10.00       10.00       10.00    
   5    10.00       10.00       10.00       10.00       10.00       10.00       10.00       10.00       10.00       10.00    
   6    10.00       10.00       10.00       10.00       10.00       10.00       10.00       10.00       10.00       10.00    
   7    10.00       10.00       10.00       10.00       10.00       10.00       10.00       10.00       10.00       10.00    
   8    10.00       10.00       10.00       10.00       10.00       10.00       10.00       10.00       10.00       10.00    
   9    10.00       10.00       10.00       10.00       10.00       10.00       10.00       10.00       10.00       10.00    
  10    10.00       10.00       10.00       10.00       10.00       10.00       10.00       10.00       10.00       10.00    
1
              HEAD IN LAYER   5 AT END OF TIME STEP   1 IN STRESS PERIOD    1
  ---------------------------------------------------------------------------

            1           2           3           4           5           6           7           8           9          10
 ........................................................................................................................
   1    10.00       10.00       10.00       10.00       10.00       10.00       10.00       10.00       10.00       10.00    
   2    10.00       10.00       10.00       10.00       10.00       10.00       10.00       10.00       10.00       10.00    
   3    10.00       10.00       10.00       10.00       10.00       10.00       10.00       10.00       10.00       10.00    
   4    10.00       10.00       10.00       10.00       10.00       10.00       10.00       10.00       10.00       10.00    
   5    10.00       10.00       10.00       10.00       10.00       10.00       10.00       10.00       10.00       10.00    
   6    10.00       10.00       10.00       10.00       10.00       10.00       10.00       10.00       10.00       10.00    
   7    10.00       10.00       10.00       10.00       10.00       10.00       10.00       10.00       10.00       10.00    
   8    10.00       10.00       10.00       10.00       10.00       10.00       10.00       10.00       10.00       10.00    
   9    10.00       10.00       10.00       10.00       10.00       10.00       10.00       10.00       10.00       10.00    
  10    10.00       10.00       10.00       10.00       10.00       10.00       10.00       10.00       10.00       10.00    

 HEAD WILL BE SAVED ON UNIT   51 AT END OF TIME STEP    1, STRESS PERIOD    1

 DRAWDOWN WILL BE SAVED ON UNIT   52 AT END OF TIME STEP    1, STRESS PERIOD    1
1
  VOLUMETRIC BUDGET FOR ENTIRE MODEL AT END OF TIME STEP    1, STRESS PERIOD   1
  ------------------------------------------------------------------------------

     CUMULATIVE VOLUMES      L**3       RATES FOR THIS TIME STEP      L**3/T
     ------------------                 ------------------------

           IN:                                      IN:
           ---                                      ---
             STORAGE =           0.0000               STORAGE =           0.0000
       CONSTANT HEAD =           0.0000         CONSTANT HEAD =           0.0000
               WELLS =           0.0000                 WELLS =           0.0000
     HEAD DEP BOUNDS =           0.0000       HEAD DEP BOUNDS =           0.0000

            TOTAL IN =           0.0000              TOTAL IN =           0.0000

          OUT:                                     OUT:
          ----                                     ----
             STORAGE =           0.0000               STORAGE =           0.0000
       CONSTANT HEAD =           0.0000         CONSTANT HEAD =           0.0000
               WELLS =           0.0000                 WELLS =           0.0000
     HEAD DEP BOUNDS =           0.0000       HEAD DEP BOUNDS =           0.0000

           TOTAL OUT =           0.0000             TOTAL OUT =           0.0000

            IN - OUT =           0.0000              IN - OUT =           0.0000

 PERCENT DISCREPANCY =           0.00     PERCENT DISCREPANCY =           0.00






         TIME SUMMARY AT END OF TIME STEP    1 IN STRESS PERIOD    1
                    SECONDS     MINUTES      HOURS       DAYS        YEARS
                    -----------------------------------------------------------
   TIME STEP LENGTH  86400.      1440.0      24.000      1.0000     2.73785E-03
 STRESS PERIOD TIME  86400.      1440.0      24.000      1.0000     2.73785E-03
         TOTAL TIME  86400.      1440.0      24.000      1.0000     2.73785E-03
1
1
                            STRESS PERIOD NO.    2, LENGTH =   100.0000    
                            -----------------------------------------------

                              NUMBER OF TIME STEPS =   100

                               MULTIPLIER FOR DELT =     1.000

                            INITIAL TIME STEP SIZE =   1.000000    

 WELL NO.  LAYER   ROW   COL   STRESS RATE         
 --------------------------------------------------
      1      1      5      5       0.000    

      1 WELL 

 BOUND. NO. LAYER   ROW   COL     STAGE      CONDUCTANCE         
 ----------------------------------------------------------------
      1      1      1      1       10.00           6000.    
      2      1      1     10       0.000           5000.    
      3      1      2      1       10.00           6000.    
      4      1      2     10       0.000           5000.    
      5      1      3      1       10.00           6000.    
      6      1      3     10       0.000           5000.    
      7      1      4      1       10.00           6000.    
      8      1      4     10       0.000           5000.    
      9      1      5      1       10.00           6000.    
     10      1      5     10       0.000           5000.    
     11      1      6      1       10.00           6000.    
     12      1      6     10       0.000           5000.    
     13      1      7      1       10.00           6000.    
     14      1      7     10       0.000           5000.    
     15      1      8      1       10.00           6000.    
     16      1      8     10       0.000           5000.    
     17      1      9      1       10.00           6000.    
     18      1      9     10       0.000           5000.    
     19      1     10      1       10.00           6000.    
     20      1     10     10       0.000           5000.    
     21      2      1      1       10.00           6000.    
     22      2      1     10       0.000           5000.    
     23      2      2      1       10.00           6000.    
     24      2      2     10       0.000           5000.    
     25      2      3      1       10.00           6000.    
     26      2      3     10       0.000           5000.    
     27      2      4      1       10.00           6000.    
     28      2      4     10       0.000           5000.    
     29      2      5      1       10.00           6000.    
     30      2      5     10       0.000           5000.    
     31      2      6      1       10.00           6000.    
     32      2      6     10       0.000           5000.    
     33      2      7      1       10.00           6000.    
     34      2      7     10       0.000           5000.    
     35      2      8      1       10.00           6000.    
     36      2      8     10       0.000           5000.    
     37      2      9      1       10.00           6000.    
     38      2      9     10       0.000           5000.    
     39      2     10      1       10.00           6000.    
     40      2     10     10       0.000           5000.    
     41      3      1      1       10.00           6000.    
     42      3      1     10       0.000           5000.    
     43      3      2      1       10.00           6000.    
     44      3      2     10       0.000           5000.    
     45      3      3      1       10.00           6000.    
     46      3      3     10       0.000           5000.    
     47      3      4      1       10.00           6000.    
     48      3      4     10       0.000           5000.    
     49      3      5      1       10.00           6000.    
     50      3      5     10       0.000           5000.    
     51      3      6      1       10.00           6000.    
     52      3      6     10       0.000           5000.    
     53      3      7      1       10.00           6000.    
     54      3      7     10       0.000           5000.    
     55      3      8      1       10.00           6000.    
     56      3      8     10       0.000           5000.    
     57      3      9      1       10.00           6000.    
     58      3      9     10       0.000           5000.    
     59      3     10      1       10.00           6000.    
     60      3     10     10       0.000           5000.    
     61      4      1      1       10.00           6000.    
     62      4      1     10       0.000           5000.    
     63      4      2      1       10.00           6000.    
     64      4      2     10       0.000           5000.    
     65      4      3      1       10.00           6000.    
     66      4      3     10       0.000           5000.    
     67      4      4      1       10.00           6000.    
     68      4      4     10       0.000           5000.    
     69      4      5      1       10.00           6000.    
     70      4      5     10       0.000           5000.    
     71      4      6      1       10.00           6000.    
     72      4      6     10       0.000           5000.    
     73      4      7      1       10.00           6000.    
     74      4      7     10       0.000           5000.    
     75      4      8      1       10.00           6000.    
     76      4      8     10       0.000           5000.    
     77      4      9      1       10.00           6000.    
     78      4      9     10       0.000           5000.    
     79      4     10      1       10.00           6000.    
     80      4     10     10       0.000           5000.    
     81      5      1      1       10.00           6000.    
     82      5      1     10       0.000           5000.    
     83      5      2      1       10.00           6000.    
     84      5      2     10       0.000           5000.    
     85      5      3      1       10.00           6000.    
     86      5      3     10       0.000           5000.    
     87      5      4      1       10.00           6000.    
     88      5      4     10       0.000           5000.    
     89      5      5      1       10.00           6000.    
     90      5      5     10       0.000           5000.    
     91      5      6      1       10.00           6000.    
     92      5      6     10       0.000           5000.    
     93      5      7      1       10.00           6000.    
     94      5      7     10       0.000           5000.    
     95      5      8      1       10.00           6000.    
     96      5      8     10       0.000           5000.    
     97      5      9      1       10.00           6000.    
     98      5      9     10       0.000           5000.    
     99      5     10      1       10.00           6000.    
    100      5     10     10       0.000           5000.    

    100 GHB CELLS
 
 SOLVING FOR HEAD 

 OUTPUT CONTROL FOR STRESS PERIOD    2   TIME STEP    1
    SAVE HEAD FOR ALL LAYERS
    SAVE DRAWDOWN FOR ALL LAYERS
    SAVE BUDGET
    PRINT HEAD FOR ALL LAYERS
    PRINT BUDGET
 UBDSV1 SAVING "         STORAGE" ON UNIT  53 AT TIME STEP  1, STRESS PERIOD   2
 UBDSV2 SAVING "   CONSTANT HEAD" ON UNIT  53 AT TIME STEP  1, STRESS PERIOD   2
 UBDSV1 SAVING "FLOW RIGHT FACE " ON UNIT  53 AT TIME STEP  1, STRESS PERIOD   2
 UBDSV1 SAVING "FLOW FRONT FACE " ON UNIT  53 AT TIME STEP  1, STRESS PERIOD   2
 UBDSV1 SAVING "FLOW LOWER FACE " ON UNIT  53 AT TIME STEP  1, STRESS PERIOD   2
1
              HEAD IN LAYER   1 AT END OF TIME STEP   1 IN STRESS PERIOD    2
  ---------------------------------------------------------------------------

            1           2           3           4           5           6           7           8           9          10
 ........................................................................................................................
   1    10.00       10.00       10.00       10.00      10.000      10.000       9.996       9.962       9.635       1.430    
   2    10.00       10.00       10.00       10.00      10.000      10.000       9.996       9.962       9.635       1.430    
   3    10.00       10.00       10.00       10.00      10.000      10.000       9.996       9.962       9.635       1.430    
   4    10.00       10.00       10.00       10.00      10.000      10.000       9.996       9.962       9.635       1.430    
   5    10.00       10.00       10.00       10.00      10.000      10.000       9.996       9.962       9.635       1.430    
   6    10.00       10.00       10.00       10.00      10.000      10.000       9.996       9.962       9.635       1.430    
   7    10.00       10.00       10.00       10.00      10.000      10.000       9.996       9.962       9.635       1.430    
   8    10.00       10.00       10.00       10.00      10.000      10.000       9.996       9.962       9.635       1.430    
   9    10.00       10.00       10.00       10.00      10.000      10.000       9.996       9.962       9.635       1.430    
  10    10.00       10.00       10.00       10.00      10.000      10.000       9.996       9.962       9.635       1.430    
1
              HEAD IN LAYER   2 AT END OF TIME STEP   1 IN STRESS PERIOD    2
  ---------------------------------------------------------------------------

            1           2           3           4           5           6           7           8           9          10
 ........................................................................................................................
   1    10.00       10.00       10.00       10.00      10.000       9.999       9.991       9.920       9.250      0.3004    
   2    10.00       10.00       10.00       10.00      10.000       9.999       9.991       9.920       9.250      0.3004    
   3    10.00       10.00       10.00       10.00      10.000       9.999       9.991       9.920       9.250      0.3004    
   4    10.00       10.00       10.00       10.00      10.000       9.999       9.991       9.920       9.250      0.3004    
   5    10.00       10.00       10.00       10.00      10.000       9.999       9.991       9.920       9.250      0.3004    
   6    10.00       10.00       10.00       10.00      10.000       9.999       9.991       9.920       9.250      0.3004    
   7    10.00       10.00       10.00       10.00      10.000       9.999       9.991       9.920       9.250      0.3004    
   8    10.00       10.00       10.00       10.00      10.000       9.999       9.991       9.920       9.250      0.3004    
   9    10.00       10.00       10.00       10.00      10.000       9.999       9.991       9.920       9.250      0.3004    
  10    10.00       10.00       10.00       10.00      10.000       9.999       9.991       9.920       9.250      0.3004    
1
              HEAD IN LAYER   3 AT END OF TIME STEP   1 IN STRESS PERIOD    2
  ---------------------------------------------------------------------------

            1           2           3           4           5           6           7           8           9          10
 ........................................................................................................................
   1    10.00       10.00       10.00       10.00      10.000       9.999       9.987       9.886       8.968      7.7540E-02
   2    10.00       10.00       10.00       10.00      10.000       9.999       9.987       9.886       8.968      7.7540E-02
   3    10.00       10.00       10.00       10.00      10.000       9.999       9.987       9.886       8.968      7.7540E-02
   4    10.00       10.00       10.00       10.00      10.000       9.999       9.987       9.886       8.968      7.7540E-02
   5    10.00       10.00       10.00       10.00      10.000       9.999       9.987       9.886       8.968      7.7540E-02
   6    10.00       10.00       10.00       10.00      10.000       9.999       9.987       9.886       8.968      7.7540E-02
   7    10.00       10.00       10.00       10.00      10.000       9.999       9.987       9.886       8.968      7.7540E-02
   8    10.00       10.00       10.00       10.00      10.000       9.999       9.987       9.886       8.968      7.7540E-02
   9    10.00       10.00       10.00       10.00      10.000       9.999       9.987       9.886       8.968      7.7540E-02
  10    10.00       10.00       10.00       10.00      10.000       9.999       9.987       9.886       8.968      7.7540E-02
1
              HEAD IN LAYER   4 AT END OF TIME STEP   1 IN STRESS PERIOD    2
  ---------------------------------------------------------------------------

            1           2           3           4           5           6           7           8           9          10
 ........................................................................................................................
   1    10.00       10.00       10.00       10.00      10.000       9.998       9.984       9.862       8.786      4.8991E-02
   2    10.00       10.00       10.00       10.00      10.000       9.998       9.984       9.862       8.786      4.8991E-02
   3    10.00       10.00       10.00       10.00      10.000       9.998       9.984       9.862       8.786      4.8991E-02
   4    10.00       10.00       10.00       10.00      10.000       9.998       9.984       9.862       8.786      4.8991E-02
   5    10.00       10.00       10.00       10.00      10.000       9.998       9.984       9.862       8.786      4.8991E-02
   6    10.00       10.00       10.00       10.00      10.000       9.998       9.984       9.862       8.786      4.8991E-02
   7    10.00       10.00       10.00       10.00      10.000       9.998       9.984       9.862       8.786      4.8991E-02
   8    10.00       10.00       10.00       10.00      10.000       9.998       9.984       9.862       8.786      4.8991E-02
   9    10.00       10.00       10.00       10.00      10.000       9.998       9.984       9.862       8.786      4.8991E-02
  10    10.00       10.00       10.00       10.00      10.000       9.998       9.984       9.862       8.786      4.8991E-02
1
              HEAD IN LAYER   5 AT END OF TIME STEP   1 IN STRESS PERIOD    2
  ---------------------------------------------------------------------------

            1           2           3           4           5           6           7           8           9          10
 ........................................................................................................................
   1    10.00       10.00       10.00       10.00      10.000       9.998       9.983       9.849       8.697      4.5275E-02
   2    10.00       10.00       10.00       10.00      10.000       9.998       9.983       9.849       8.697      4.5275E-02
   3    10.00       10.00       10.00       10.00      10.000       9.998       9.983       9.849       8.697      4.5275E-02
   4    10.00       10.00       10.00       10.00      10.000       9.998       9.983       9.849       8.697      4.5275E-02
   5    10.00       10.00       10.00       10.00      10.000       9.998       9.983       9.849       8.697      4.5275E-02
   6    10.00       10.00       10.00       10.00      10.000       9.998       9.983       9.849       8.697      4.5275E-02
   7    10.00       10.00       10.00       10.00      10.000       9.998       9.983       9.849       8.697      4.5275E-02
   8    10.00       10.00       10.00       10.00      10.000       9.998       9.983       9.849       8.697      4.5275E-02
   9    10.00       10.00       10.00       10.00      10.000       9.998       9.983       9.849       8.697      4.5275E-02
  10    10.00       10.00       10.00       10.00      10.000       9.998       9.983       9.849       8.697      4.5275E-02

 HEAD WILL BE SAVED ON UNIT   51 AT END OF TIME STEP    1, STRESS PERIOD    2

 DRAWDOWN WILL BE SAVED ON UNIT   52 AT END OF TIME STEP    1, STRESS PERIOD    2
1
  VOLUMETRIC BUDGET FOR ENTIRE MODEL AT END OF TIME STEP    1, STRESS PERIOD   2
  ------------------------------------------------------------------------------

     CUMULATIVE VOLUMES      L**3       RATES FOR THIS TIME STEP      L**3/T
     ------------------                 ------------------------

           IN:                                      IN:
           ---                                      ---
             STORAGE =       95106.5469               STORAGE =       95106.5469
       CONSTANT HEAD =           0.0000         CONSTANT HEAD =           0.0000
               WELLS =           0.0000                 WELLS =           0.0000
     HEAD DEP BOUNDS =       1.2717E-04       HEAD DEP BOUNDS =       1.2717E-04

            TOTAL IN =       95106.5469              TOTAL IN =       95106.5469

          OUT:                                     OUT:
          ----                                     ----
             STORAGE =           0.0000               STORAGE =           0.0000
       CONSTANT HEAD =           0.0000         CONSTANT HEAD =           0.0000
               WELLS =           0.0000                 WELLS =           0.0000
     HEAD DEP BOUNDS =       95106.5469       HEAD DEP BOUNDS =       95106.5469

           TOTAL OUT =       95106.5469             TOTAL OUT =       95106.5469

            IN - OUT =           0.0000              IN - OUT =           0.0000

 PERCENT DISCREPANCY =           0.00     PERCENT DISCREPANCY =           0.00






         TIME SUMMARY AT END OF TIME STEP    1 IN STRESS PERIOD    2
                    SECONDS     MINUTES      HOURS       DAYS        YEARS
                    -----------------------------------------------------------
   TIME STEP LENGTH  86400.      1440.0      24.000      1.0000     2.73785E-03
 STRESS PERIOD TIME  86400.      1440.0      24.000      1.0000     2.73785E-03
         TOTAL TIME 1.72800E+05  2880.0      48.000      2.0000     5.47570E-03
1
 
 SOLVING FOR HEAD 

 OUTPUT CONTROL FOR STRESS PERIOD    2   TIME STEP    2
    SAVE HEAD FOR ALL LAYERS
    SAVE DRAWDOWN FOR ALL LAYERS
    SAVE BUDGET
    PRINT HEAD FOR ALL LAYERS
    PRINT BUDGET
 UBDSV1 SAVING "         STORAGE" ON UNIT  53 AT TIME STEP  2, STRESS PERIOD   2
 UBDSV2 SAVING "   CONSTANT HEAD" ON UNIT  53 AT TIME STEP  2, STRESS PERIOD   2
 UBDSV1 SAVING "FLOW RIGHT FACE " ON UNIT  53 AT TIME STEP  2, STRESS PERIOD   2
 UBDSV1 SAVING "FLOW FRONT FACE " ON UNIT  53 AT TIME STEP  2, STRESS PERIOD   2
 UBDSV1 SAVING "FLOW LOWER FACE " ON UNIT  53 AT TIME STEP  2, STRESS PERIOD   2
1
              HEAD IN LAYER   1 AT END OF TIME STEP   2 IN STRESS PERIOD    2
  ---------------------------------------------------------------------------

            1           2           3           4           5           6           7           8           9          10
 ........................................................................................................................
   1    10.00       10.00       10.00       10.00      10.000       9.999       9.988       9.908       9.277      0.2087    
   2    10.00       10.00       10.00       10.00      10.000       9.999       9.988       9.908       9.277      0.2087    
   3    10.00       10.00       10.00       10.00      10.000       9.999       9.988       9.908       9.277      0.2087    
   4    10.00       10.00       10.00       10.00      10.000       9.999       9.988       9.908       9.277      0.2087    
   5    10.00       10.00       10.00       10.00      10.000       9.999       9.988       9.908       9.277      0.2087    
   6    10.00       10.00       10.00       10.00      10.000       9.999       9.988       9.908       9.277      0.2087    
   7    10.00       10.00       10.00       10.00      10.000       9.999       9.988       9.908       9.277      0.2087    
   8    10.00       10.00       10.00       10.00      10.000       9.999       9.988       9.908       9.277      0.2087    
   9    10.00       10.00       10.00       10.00      10.000       9.999       9.988       9.908       9.277      0.2087    
  10    10.00       10.00       10.00       10.00      10.000       9.999       9.988       9.908       9.277      0.2087    
1
              HEAD IN LAYER   2 AT END OF TIME STEP   2 IN STRESS PERIOD    2
  ---------------------------------------------------------------------------

            1           2           3           4           5           6           7           8           9          10
 ........................................................................................................................
   1    10.00       10.00       10.00       10.00      10.000       9.997       9.980       9.852       8.891      5.8533E-02
   2    10.00       10.00       10.00       10.00      10.000       9.997       9.980       9.852       8.891      5.8533E-02
   3    10.00       10.00       10.00       10.00      10.000       9.997       9.980       9.852       8.891      5.8533E-02
   4    10.00       10.00       10.00       10.00      10.000       9.997       9.980       9.852       8.891      5.8533E-02
   5    10.00       10.00       10.00       10.00      10.000       9.997       9.980       9.852       8.891      5.8533E-02
   6    10.00       10.00       10.00       10.00      10.000       9.997       9.980       9.852       8.891      5.8533E-02
   7    10.00       10.00       10.00       10.00      10.000       9.997       9.980       9.852       8.891      5.8533E-02
   8    10.00       10.00       10.00       10.00      10.000       9.997       9.980       9.852       8.891      5.8533E-02
   9    10.00       10.00       10.00       10.00      10.000       9.997       9.980       9.852       8.891      5.8533E-02
  10    10.00       10.00       10.00       10.00      10.000       9.997       9.980       9.852       8.891      5.8533E-02
1
              HEAD IN LAYER   3 AT END OF TIME STEP   2 IN STRESS PERIOD    2
  ---------------------------------------------------------------------------

            1           2           3           4           5           6           7           8           9          10
 ........................................................................................................................
   1    10.00       10.00       10.00      10.000      10.000       9.997       9.974       9.806       8.601      2.5452E-02
   2    10.00       10.00       10.00      10.000      10.000       9.997       9.974       9.806       8.601      2.5452E-02
   3    10.00       10.00       10.00      10.000      10.000       9.997       9.974       9.806       8.601      2.5452E-02
   4    10.00       10.00       10.00      10.000      10.000       9.997       9.974       9.806       8.601      2.5452E-02
   5    10.00       10.00       10.00      10.000      10.000       9.997       9.974       9.806       8.601      2.5452E-02
   6    10.00       10.00       10.00      10.000      10.000       9.997       9.974       9.806       8.601      2.5452E-02
   7    10.00       10.00       10.00      10.000      10.000       9.997       9.974       9.806       8.601      2.5452E-02
   8    10.00       10.00       10.00      10.000      10.000       9.997       9.974       9.806       8.601      2.5452E-02
   9    10.00       10.00       10.00      10.000      10.000       9.997       9.974       9.806       8.601      2.5452E-02
  10    10.00       10.00       10.00      10.000      10.000       9.997       9.974       9.806       8.601      2.5452E-02
1
              HEAD IN LAYER   4 AT END OF TIME STEP   2 IN STRESS PERIOD    2
  ---------------------------------------------------------------------------

            1           2           3           4           5           6           7           8           9          10
 ........................................................................................................................
   1    10.00       10.00       10.00      10.000       9.999       9.996       9.969       9.774       8.412      2.0848E-02
   2    10.00       10.00       10.00      10.000       9.999       9.996       9.969       9.774       8.412      2.0848E-02
   3    10.00       10.00       10.00      10.000       9.999       9.996       9.969       9.774       8.412      2.0848E-02
   4    10.00       10.00       10.00      10.000       9.999       9.996       9.969       9.774       8.412      2.0848E-02
   5    10.00       10.00       10.00      10.000       9.999       9.996       9.969       9.774       8.412      2.0848E-02
   6    10.00       10.00       10.00      10.000       9.999       9.996       9.969       9.774       8.412      2.0848E-02
   7    10.00       10.00       10.00      10.000       9.999       9.996       9.969       9.774       8.412      2.0848E-02
   8    10.00       10.00       10.00      10.000       9.999       9.996       9.969       9.774       8.412      2.0848E-02
   9    10.00       10.00       10.00      10.000       9.999       9.996       9.969       9.774       8.412      2.0848E-02
  10    10.00       10.00       10.00      10.000       9.999       9.996       9.969       9.774       8.412      2.0848E-02
1
              HEAD IN LAYER   5 AT END OF TIME STEP   2 IN STRESS PERIOD    2
  ---------------------------------------------------------------------------

            1           2           3           4           5           6           7           8           9          10
 ........................................................................................................................
   1    10.00       10.00       10.00      10.000       9.999       9.996       9.967       9.758       8.318      2.0101E-02
   2    10.00       10.00       10.00      10.000       9.999       9.996       9.967       9.758       8.318      2.0101E-02
   3    10.00       10.00       10.00      10.000       9.999       9.996       9.967       9.758       8.318      2.0101E-02
   4    10.00       10.00       10.00      10.000       9.999       9.996       9.967       9.758       8.318      2.0101E-02
   5    10.00       10.00       10.00      10.000       9.999       9.996       9.967       9.758       8.318      2.0101E-02
   6    10.00       10.00       10.00      10.000       9.999       9.996       9.967       9.758       8.318      2.0101E-02
   7    10.00       10.00       10.00      10.000       9.999       9.996       9.967       9.758       8.318      2.0101E-02
   8    10.00       10.00       10.00      10.000       9.999       9.996       9.967       9.758       8.318      2.0101E-02
   9    10.00       10.00       10.00      10.000       9.999       9.996       9.967       9.758       8.318      2.0101E-02
  10    10.00       10.00       10.00      10.000       9.999       9.996       9.967       9.758       8.318      2.0101E-02

 HEAD WILL BE SAVED ON UNIT   51 AT END OF TIME STEP    2, STRESS PERIOD    2

 DRAWDOWN WILL BE SAVED ON UNIT   52 AT END OF TIME STEP    2, STRESS PERIOD    2
1
  VOLUMETRIC BUDGET FOR ENTIRE MODEL AT END OF TIME STEP    2, STRESS PERIOD   2
  ------------------------------------------------------------------------------

     CUMULATIVE VOLUMES      L**3       RATES FOR THIS TIME STEP      L**3/T
     ------------------                 ------------------------

           IN:                                      IN:
           ---                                      ---
             STORAGE =      111787.1094               STORAGE =       16680.5664
       CONSTANT HEAD =           0.0000         CONSTANT HEAD =           0.0000
               WELLS =           0.0000                 WELLS =           0.0000
     HEAD DEP BOUNDS =       5.6869E-04       HEAD DEP BOUNDS =       4.4152E-04

            TOTAL IN =      111787.1094              TOTAL IN =       16680.5664

          OUT:                                     OUT:
          ----                                     ----
             STORAGE =           0.0000               STORAGE =           0.0000
       CONSTANT HEAD =           0.0000         CONSTANT HEAD =           0.0000
               WELLS =           0.0000                 WELLS =           0.0000
     HEAD DEP BOUNDS =      111787.1250       HEAD DEP BOUNDS =       16680.5742

           TOTAL OUT =      111787.1250             TOTAL OUT =       16680.5742

            IN - OUT =      -1.5625E-02              IN - OUT =      -7.8125E-03

 PERCENT DISCREPANCY =          -0.00     PERCENT DISCREPANCY =          -0.00






         TIME SUMMARY AT END OF TIME STEP    2 IN STRESS PERIOD    2
                    SECONDS     MINUTES      HOURS       DAYS        YEARS
                    -----------------------------------------------------------
   TIME STEP LENGTH  86400.      1440.0      24.000      1.0000     2.73785E-03
 STRESS PERIOD TIME 1.72800E+05  2880.0      48.000      2.0000     5.47570E-03
         TOTAL TIME 2.59200E+05  4320.0      72.000      3.0000     8.21355E-03
1
 
 SOLVING FOR HEAD 

 OUTPUT CONTROL FOR STRESS PERIOD    2   TIME STEP    3
    SAVE HEAD FOR ALL LAYERS
    SAVE DRAWDOWN FOR ALL LAYERS
    SAVE BUDGET
    PRINT HEAD FOR ALL LAYERS
    PRINT BUDGET
 UBDSV1 SAVING "         STORAGE" ON UNIT  53 AT TIME STEP  3, STRESS PERIOD   2
 UBDSV2 SAVING "   CONSTANT HEAD" ON UNIT  53 AT TIME STEP  3, STRESS PERIOD   2
 UBDSV1 SAVING "FLOW RIGHT FACE " ON UNIT  53 AT TIME STEP  3, STRESS PERIOD   2
 UBDSV1 SAVING "FLOW FRONT FACE " ON UNIT  53 AT TIME STEP  3, STRESS PERIOD   2
 UBDSV1 SAVING "FLOW LOWER FACE " ON UNIT  53 AT TIME STEP  3, STRESS PERIOD   2
1
              HEAD IN LAYER   1 AT END OF TIME STEP   3 IN STRESS PERIOD    2
  ---------------------------------------------------------------------------

            1           2           3           4           5           6           7           8           9          10
 ........................................................................................................................
   1    10.00       10.00       10.00      10.000      10.000       9.997       9.978       9.845       8.944      3.6787E-02
   2    10.00       10.00       10.00      10.000      10.000       9.997       9.978       9.845       8.944      3.6787E-02
   3    10.00       10.00       10.00      10.000      10.000       9.997       9.978       9.845       8.944      3.6787E-02
   4    10.00       10.00       10.00      10.000      10.000       9.997       9.978       9.845       8.944      3.6787E-02
   5    10.00       10.00       10.00      10.000      10.000       9.997       9.978       9.845       8.944      3.6787E-02
   6    10.00       10.00       10.00      10.000      10.000       9.997       9.978       9.845       8.944      3.6787E-02
   7    10.00       10.00       10.00      10.000      10.000       9.997       9.978       9.845       8.944      3.6787E-02
   8    10.00       10.00       10.00      10.000      10.000       9.997       9.978       9.845       8.944      3.6787E-02
   9    10.00       10.00       10.00      10.000      10.000       9.997       9.978       9.845       8.944      3.6787E-02
  10    10.00       10.00       10.00      10.000      10.000       9.997       9.978       9.845       8.944      3.6787E-02
1
              HEAD IN LAYER   2 AT END OF TIME STEP   3 IN STRESS PERIOD    2
  ---------------------------------------------------------------------------

            1           2           3           4           5           6           7           8           9          10
 ........................................................................................................................
   1    10.00       10.00       10.00      10.000       9.999       9.995       9.967       9.780       8.585      2.3771E-02
   2    10.00       10.00       10.00      10.000       9.999       9.995       9.967       9.780       8.585      2.3771E-02
   3    10.00       10.00       10.00      10.000       9.999       9.995       9.967       9.780       8.585      2.3771E-02
   4    10.00       10.00       10.00      10.000       9.999       9.995       9.967       9.780       8.585      2.3771E-02
   5    10.00       10.00       10.00      10.000       9.999       9.995       9.967       9.780       8.585      2.3771E-02
   6    10.00       10.00       10.00      10.000       9.999       9.995       9.967       9.780       8.585      2.3771E-02
   7    10.00       10.00       10.00      10.000       9.999       9.995       9.967       9.780       8.585      2.3771E-02
   8    10.00       10.00       10.00      10.000       9.999       9.995       9.967       9.780       8.585      2.3771E-02
   9    10.00       10.00       10.00      10.000       9.999       9.995       9.967       9.780       8.585      2.3771E-02
  10    10.00       10.00       10.00      10.000       9.999       9.995       9.967       9.780       8.585      2.3771E-02
1
              HEAD IN LAYER   3 AT END OF TIME STEP   3 IN STRESS PERIOD    2
  ---------------------------------------------------------------------------

            1           2           3           4           5           6           7           8           9          10
 ........................................................................................................................
   1    10.00       10.00       10.00      10.000       9.999       9.994       9.959       9.728       8.312      2.0351E-02
   2    10.00       10.00       10.00      10.000       9.999       9.994       9.959       9.728       8.312      2.0351E-02
   3    10.00       10.00       10.00      10.000       9.999       9.994       9.959       9.728       8.312      2.0351E-02
   4    10.00       10.00       10.00      10.000       9.999       9.994       9.959       9.728       8.312      2.0351E-02
   5    10.00       10.00       10.00      10.000       9.999       9.994       9.959       9.728       8.312      2.0351E-02
   6    10.00       10.00       10.00      10.000       9.999       9.994       9.959       9.728       8.312      2.0351E-02
   7    10.00       10.00       10.00      10.000       9.999       9.994       9.959       9.728       8.312      2.0351E-02
   8    10.00       10.00       10.00      10.000       9.999       9.994       9.959       9.728       8.312      2.0351E-02
   9    10.00       10.00       10.00      10.000       9.999       9.994       9.959       9.728       8.312      2.0351E-02
  10    10.00       10.00       10.00      10.000       9.999       9.994       9.959       9.728       8.312      2.0351E-02
1
              HEAD IN LAYER   4 AT END OF TIME STEP   3 IN STRESS PERIOD    2
  ---------------------------------------------------------------------------

            1           2           3           4           5           6           7           8           9          10
 ........................................................................................................................
   1    10.00       10.00       10.00      10.000       9.999       9.993       9.953       9.693       8.133      1.9565E-02
   2    10.00       10.00       10.00      10.000       9.999       9.993       9.953       9.693       8.133      1.9565E-02
   3    10.00       10.00       10.00      10.000       9.999       9.993       9.953       9.693       8.133      1.9565E-02
   4    10.00       10.00       10.00      10.000       9.999       9.993       9.953       9.693       8.133      1.9565E-02
   5    10.00       10.00       10.00      10.000       9.999       9.993       9.953       9.693       8.133      1.9565E-02
   6    10.00       10.00       10.00      10.000       9.999       9.993       9.953       9.693       8.133      1.9565E-02
   7    10.00       10.00       10.00      10.000       9.999       9.993       9.953       9.693       8.133      1.9565E-02
   8    10.00       10.00       10.00      10.000       9.999       9.993       9.953       9.693       8.133      1.9565E-02
   9    10.00       10.00       10.00      10.000       9.999       9.993       9.953       9.693       8.133      1.9565E-02
  10    10.00       10.00       10.00      10.000       9.999       9.993       9.953       9.693       8.133      1.9565E-02
1
              HEAD IN LAYER   5 AT END OF TIME STEP   3 IN STRESS PERIOD    2
  ---------------------------------------------------------------------------

            1           2           3           4           5           6           7           8           9          10
 ........................................................................................................................
   1    10.00       10.00       10.00      10.000       9.999       9.993       9.950       9.674       8.045      1.9307E-02
   2    10.00       10.00       10.00      10.000       9.999       9.993       9.950       9.674       8.045      1.9307E-02
   3    10.00       10.00       10.00      10.000       9.999       9.993       9.950       9.674       8.045      1.9307E-02
   4    10.00       10.00       10.00      10.000       9.999       9.993       9.950       9.674       8.045      1.9307E-02
   5    10.00       10.00       10.00      10.000       9.999       9.993       9.950       9.674       8.045      1.9307E-02
   6    10.00       10.00       10.00      10.000       9.999       9.993       9.950       9.674       8.045      1.9307E-02
   7    10.00       10.00       10.00      10.000       9.999       9.993       9.950       9.674       8.045      1.9307E-02
   8    10.00       10.00       10.00      10.000       9.999       9.993       9.950       9.674       8.045      1.9307E-02
   9    10.00       10.00       10.00      10.000       9.999       9.993       9.950       9.674       8.045      1.9307E-02
  10    10.00       10.00       10.00      10.000       9.999       9.993       9.950       9.674       8.045      1.9307E-02

 HEAD WILL BE SAVED ON UNIT   51 AT END OF TIME STEP    3, STRESS PERIOD    2

 DRAWDOWN WILL BE SAVED ON UNIT   52 AT END OF TIME STEP    3, STRESS PERIOD    2
1
  VOLUMETRIC BUDGET FOR ENTIRE MODEL AT END OF TIME STEP    3, STRESS PERIOD   2
  ------------------------------------------------------------------------------

     CUMULATIVE VOLUMES      L**3       RATES FOR THIS TIME STEP      L**3/T
     ------------------                 ------------------------

           IN:                                      IN:
           ---                                      ---
             STORAGE =      117776.1562               STORAGE =        5989.0508
       CONSTANT HEAD =           0.0000         CONSTANT HEAD =           0.0000
               WELLS =           0.0000                 WELLS =           0.0000
     HEAD DEP BOUNDS =       1.5365E-03       HEAD DEP BOUNDS =       9.6777E-04

            TOTAL IN =      117776.1562              TOTAL IN =        5989.0518

          OUT:                                     OUT:
          ----                                     ----
             STORAGE =           0.0000               STORAGE =           0.0000
       CONSTANT HEAD =           0.0000         CONSTANT HEAD =           0.0000
               WELLS =           0.0000                 WELLS =           0.0000
     HEAD DEP BOUNDS =      117776.1719       HEAD DEP BOUNDS =        5989.0498

           TOTAL OUT =      117776.1719             TOTAL OUT =        5989.0498

            IN - OUT =      -1.5625E-02              IN - OUT =       1.9531E-03

 PERCENT DISCREPANCY =          -0.00     PERCENT DISCREPANCY =           0.00






         TIME SUMMARY AT END OF TIME STEP    3 IN STRESS PERIOD    2
                    SECONDS     MINUTES      HOURS       DAYS        YEARS
                    -----------------------------------------------------------
   TIME STEP LENGTH  86400.      1440.0      24.000      1.0000     2.73785E-03
 STRESS PERIOD TIME 2.59200E+05  4320.0      72.000      3.0000     8.21355E-03
         TOTAL TIME 3.45600E+05  5760.0      96.000      4.0000     1.09514E-02
1
 
 SOLVING FOR HEAD 

 OUTPUT CONTROL FOR STRESS PERIOD    2   TIME STEP    4
    SAVE HEAD FOR ALL LAYERS
    SAVE DRAWDOWN FOR ALL LAYERS
    SAVE BUDGET
    PRINT HEAD FOR ALL LAYERS
    PRINT BUDGET
 UBDSV1 SAVING "         STORAGE" ON UNIT  53 AT TIME STEP  4, STRESS PERIOD   2
 UBDSV2 SAVING "   CONSTANT HEAD" ON UNIT  53 AT TIME STEP  4, STRESS PERIOD   2
 UBDSV1 SAVING "FLOW RIGHT FACE " ON UNIT  53 AT TIME STEP  4, STRESS PERIOD   2
 UBDSV1 SAVING "FLOW FRONT FACE " ON UNIT  53 AT TIME STEP  4, STRESS PERIOD   2
 UBDSV1 SAVING "FLOW LOWER FACE " ON UNIT  53 AT TIME STEP  4, STRESS PERIOD   2
1
              HEAD IN LAYER   1 AT END OF TIME STEP   4 IN STRESS PERIOD    2
  ---------------------------------------------------------------------------

            1           2           3           4           5           6           7           8           9          10
 ........................................................................................................................
   1    10.00       10.00       10.00      10.000       9.999       9.995       9.965       9.775       8.635      1.2405E-02
   2    10.00       10.00       10.00      10.000       9.999       9.995       9.965       9.775       8.635      1.2405E-02
   3    10.00       10.00       10.00      10.000       9.999       9.995       9.965       9.775       8.635      1.2405E-02
   4    10.00       10.00       10.00      10.000       9.999       9.995       9.965       9.775       8.635      1.2405E-02
   5    10.00       10.00       10.00      10.000       9.999       9.995       9.965       9.775       8.635      1.2405E-02
   6    10.00       10.00       10.00      10.000       9.999       9.995       9.965       9.775       8.635      1.2405E-02
   7    10.00       10.00       10.00      10.000       9.999       9.995       9.965       9.775       8.635      1.2405E-02
   8    10.00       10.00       10.00      10.000       9.999       9.995       9.965       9.775       8.635      1.2405E-02
   9    10.00       10.00       10.00      10.000       9.999       9.995       9.965       9.775       8.635      1.2405E-02
  10    10.00       10.00       10.00      10.000       9.999       9.995       9.965       9.775       8.635      1.2405E-02
1
              HEAD IN LAYER   2 AT END OF TIME STEP   4 IN STRESS PERIOD    2
  ---------------------------------------------------------------------------

            1           2           3           4           5           6           7           8           9          10
 ........................................................................................................................
   1    10.00       10.00       10.00      10.000       9.999       9.992       9.952       9.704       8.304      1.8334E-02
   2    10.00       10.00       10.00      10.000       9.999       9.992       9.952       9.704       8.304      1.8334E-02
   3    10.00       10.00       10.00      10.000       9.999       9.992       9.952       9.704       8.304      1.8334E-02
   4    10.00       10.00       10.00      10.000       9.999       9.992       9.952       9.704       8.304      1.8334E-02
   5    10.00       10.00       10.00      10.000       9.999       9.992       9.952       9.704       8.304      1.8334E-02
   6    10.00       10.00       10.00      10.000       9.999       9.992       9.952       9.704       8.304      1.8334E-02
   7    10.00       10.00       10.00      10.000       9.999       9.992       9.952       9.704       8.304      1.8334E-02
   8    10.00       10.00       10.00      10.000       9.999       9.992       9.952       9.704       8.304      1.8334E-02
   9    10.00       10.00       10.00      10.000       9.999       9.992       9.952       9.704       8.304      1.8334E-02
  10    10.00       10.00       10.00      10.000       9.999       9.992       9.952       9.704       8.304      1.8334E-02
1
              HEAD IN LAYER   3 AT END OF TIME STEP   4 IN STRESS PERIOD    2
  ---------------------------------------------------------------------------

            1           2           3           4           5           6           7           8           9          10
 ........................................................................................................................
   1    10.00       10.00       10.00      10.000       9.999       9.991       9.941       9.647       8.048      1.9105E-02
   2    10.00       10.00       10.00      10.000       9.999       9.991       9.941       9.647       8.048      1.9105E-02
   3    10.00       10.00       10.00      10.000       9.999       9.991       9.941       9.647       8.048      1.9105E-02
   4    10.00       10.00       10.00      10.000       9.999       9.991       9.941       9.647       8.048      1.9105E-02
   5    10.00       10.00       10.00      10.000       9.999       9.991       9.941       9.647       8.048      1.9105E-02
   6    10.00       10.00       10.00      10.000       9.999       9.991       9.941       9.647       8.048      1.9105E-02
   7    10.00       10.00       10.00      10.000       9.999       9.991       9.941       9.647       8.048      1.9105E-02
   8    10.00       10.00       10.00      10.000       9.999       9.991       9.941       9.647       8.048      1.9105E-02
   9    10.00       10.00       10.00      10.000       9.999       9.991       9.941       9.647       8.048      1.9105E-02
  10    10.00       10.00       10.00      10.000       9.999       9.991       9.941       9.647       8.048      1.9105E-02
1
              HEAD IN LAYER   4 AT END OF TIME STEP   4 IN STRESS PERIOD    2
  ---------------------------------------------------------------------------

            1           2           3           4           5           6           7           8           9          10
 ........................................................................................................................
   1    10.00       10.00       10.00      10.000       9.998       9.989       9.934       9.609       7.880      1.8878E-02
   2    10.00       10.00       10.00      10.000       9.998       9.989       9.934       9.609       7.880      1.8878E-02
   3    10.00       10.00       10.00      10.000       9.998       9.989       9.934       9.609       7.880      1.8878E-02
   4    10.00       10.00       10.00      10.000       9.998       9.989       9.934       9.609       7.880      1.8878E-02
   5    10.00       10.00       10.00      10.000       9.998       9.989       9.934       9.609       7.880      1.8878E-02
   6    10.00       10.00       10.00      10.000       9.998       9.989       9.934       9.609       7.880      1.8878E-02
   7    10.00       10.00       10.00      10.000       9.998       9.989       9.934       9.609       7.880      1.8878E-02
   8    10.00       10.00       10.00      10.000       9.998       9.989       9.934       9.609       7.880      1.8878E-02
   9    10.00       10.00       10.00      10.000       9.998       9.989       9.934       9.609       7.880      1.8878E-02
  10    10.00       10.00       10.00      10.000       9.998       9.989       9.934       9.609       7.880      1.8878E-02
1
              HEAD IN LAYER   5 AT END OF TIME STEP   4 IN STRESS PERIOD    2
  ---------------------------------------------------------------------------

            1           2           3           4           5           6           7           8           9          10
 ........................................................................................................................
   1    10.00       10.00       10.00      10.000       9.998       9.989       9.930       9.589       7.798      1.8700E-02
   2    10.00       10.00       10.00      10.000       9.998       9.989       9.930       9.589       7.798      1.8700E-02
   3    10.00       10.00       10.00      10.000       9.998       9.989       9.930       9.589       7.798      1.8700E-02
   4    10.00       10.00       10.00      10.000       9.998       9.989       9.930       9.589       7.798      1.8700E-02
   5    10.00       10.00       10.00      10.000       9.998       9.989       9.930       9.589       7.798      1.8700E-02
   6    10.00       10.00       10.00      10.000       9.998       9.989       9.930       9.589       7.798      1.8700E-02
   7    10.00       10.00       10.00      10.000       9.998       9.989       9.930       9.589       7.798      1.8700E-02
   8    10.00       10.00       10.00      10.000       9.998       9.989       9.930       9.589       7.798      1.8700E-02
   9    10.00       10.00       10.00      10.000       9.998       9.989       9.930       9.589       7.798      1.8700E-02
  10    10.00       10.00       10.00      10.000       9.998       9.989       9.930       9.589       7.798      1.8700E-02

 HEAD WILL BE SAVED ON UNIT   51 AT END OF TIME STEP    4, STRESS PERIOD    2

 DRAWDOWN WILL BE SAVED ON UNIT   52 AT END OF TIME STEP    4, STRESS PERIOD    2
1
  VOLUMETRIC BUDGET FOR ENTIRE MODEL AT END OF TIME STEP    4, STRESS PERIOD   2
  ------------------------------------------------------------------------------

     CUMULATIVE VOLUMES      L**3       RATES FOR THIS TIME STEP      L**3/T
     ------------------                 ------------------------

           IN:                                      IN:
           ---                                      ---
             STORAGE =      122147.2891               STORAGE =        4371.1357
       CONSTANT HEAD =           0.0000         CONSTANT HEAD =           0.0000
               WELLS =           0.0000                 WELLS =           0.0000
     HEAD DEP BOUNDS =       3.8230E-03       HEAD DEP BOUNDS =       2.2865E-03

            TOTAL IN =      122147.2891              TOTAL IN =        4371.1382

          OUT:                                     OUT:
          ----                                     ----
             STORAGE =           0.0000               STORAGE =           0.0000
       CONSTANT HEAD =           0.0000         CONSTANT HEAD =           0.0000
               WELLS =           0.0000                 WELLS =           0.0000
     HEAD DEP BOUNDS =      122147.2969       HEAD DEP BOUNDS =        4371.1240

           TOTAL OUT =      122147.2969             TOTAL OUT =        4371.1240

            IN - OUT =      -7.8125E-03              IN - OUT =       1.4160E-02

 PERCENT DISCREPANCY =          -0.00     PERCENT DISCREPANCY =           0.00






         TIME SUMMARY AT END OF TIME STEP    4 IN STRESS PERIOD    2
                    SECONDS     MINUTES      HOURS       DAYS        YEARS
                    -----------------------------------------------------------
   TIME STEP LENGTH  86400.      1440.0      24.000      1.0000     2.73785E-03
 STRESS PERIOD TIME 3.45600E+05  5760.0      96.000      4.0000     1.09514E-02
         TOTAL TIME 4.32000E+05  7200.0      120.00      5.0000     1.36893E-02
1
 
 SOLVING FOR HEAD 

 OUTPUT CONTROL FOR STRESS PERIOD    2   TIME STEP    5
    SAVE HEAD FOR ALL LAYERS
    SAVE DRAWDOWN FOR ALL LAYERS
    SAVE BUDGET
    PRINT HEAD FOR ALL LAYERS
    PRINT BUDGET
 UBDSV1 SAVING "         STORAGE" ON UNIT  53 AT TIME STEP  5, STRESS PERIOD   2
 UBDSV2 SAVING "   CONSTANT HEAD" ON UNIT  53 AT TIME STEP  5, STRESS PERIOD   2
 UBDSV1 SAVING "FLOW RIGHT FACE " ON UNIT  53 AT TIME STEP  5, STRESS PERIOD   2
 UBDSV1 SAVING "FLOW FRONT FACE " ON UNIT  53 AT TIME STEP  5, STRESS PERIOD   2
 UBDSV1 SAVING "FLOW LOWER FACE " ON UNIT  53 AT TIME STEP  5, STRESS PERIOD   2
1
              HEAD IN LAYER   1 AT END OF TIME STEP   5 IN STRESS PERIOD    2
  ---------------------------------------------------------------------------

            1           2           3           4           5           6           7           8           9          10
 ........................................................................................................................
   1    10.00       10.00       10.00      10.000       9.999       9.992       9.949       9.699       8.348      8.7332E-03
   2    10.00       10.00       10.00      10.000       9.999       9.992       9.949       9.699       8.348      8.7332E-03
   3    10.00       10.00       10.00      10.000       9.999       9.992       9.949       9.699       8.348      8.7332E-03
   4    10.00       10.00       10.00      10.000       9.999       9.992       9.949       9.699       8.348      8.7332E-03
   5    10.00       10.00       10.00      10.000       9.999       9.992       9.949       9.699       8.348      8.7332E-03
   6    10.00       10.00       10.00      10.000       9.999       9.992       9.949       9.699       8.348      8.7332E-03
   7    10.00       10.00       10.00      10.000       9.999       9.992       9.949       9.699       8.348      8.7332E-03
   8    10.00       10.00       10.00      10.000       9.999       9.992       9.949       9.699       8.348      8.7332E-03
   9    10.00       10.00       10.00      10.000       9.999       9.992       9.949       9.699       8.348      8.7332E-03
  10    10.00       10.00       10.00      10.000       9.999       9.992       9.949       9.699       8.348      8.7332E-03
1
              HEAD IN LAYER   2 AT END OF TIME STEP   5 IN STRESS PERIOD    2
  ---------------------------------------------------------------------------

            1           2           3           4           5           6           7           8           9          10
 ........................................................................................................................
   1    10.00       10.00       10.00      10.000       9.998       9.989       9.933       9.623       8.041      1.7096E-02
   2    10.00       10.00       10.00      10.000       9.998       9.989       9.933       9.623       8.041      1.7096E-02
   3    10.00       10.00       10.00      10.000       9.998       9.989       9.933       9.623       8.041      1.7096E-02
   4    10.00       10.00       10.00      10.000       9.998       9.989       9.933       9.623       8.041      1.7096E-02
   5    10.00       10.00       10.00      10.000       9.998       9.989       9.933       9.623       8.041      1.7096E-02
   6    10.00       10.00       10.00      10.000       9.998       9.989       9.933       9.623       8.041      1.7096E-02
   7    10.00       10.00       10.00      10.000       9.998       9.989       9.933       9.623       8.041      1.7096E-02
   8    10.00       10.00       10.00      10.000       9.998       9.989       9.933       9.623       8.041      1.7096E-02
   9    10.00       10.00       10.00      10.000       9.998       9.989       9.933       9.623       8.041      1.7096E-02
  10    10.00       10.00       10.00      10.000       9.998       9.989       9.933       9.623       8.041      1.7096E-02
1
              HEAD IN LAYER   3 AT END OF TIME STEP   5 IN STRESS PERIOD    2
  ---------------------------------------------------------------------------

            1           2           3           4           5           6           7           8           9          10
 ........................................................................................................................
   1    10.00       10.00      10.000      10.000       9.998       9.986       9.921       9.563       7.801      1.8435E-02
   2    10.00       10.00      10.000      10.000       9.998       9.986       9.921       9.563       7.801      1.8435E-02
   3    10.00       10.00      10.000      10.000       9.998       9.986       9.921       9.563       7.801      1.8435E-02
   4    10.00       10.00      10.000      10.000       9.998       9.986       9.921       9.563       7.801      1.8435E-02
   5    10.00       10.00      10.000      10.000       9.998       9.986       9.921       9.563       7.801      1.8435E-02
   6    10.00       10.00      10.000      10.000       9.998       9.986       9.921       9.563       7.801      1.8435E-02
   7    10.00       10.00      10.000      10.000       9.998       9.986       9.921       9.563       7.801      1.8435E-02
   8    10.00       10.00      10.000      10.000       9.998       9.986       9.921       9.563       7.801      1.8435E-02
   9    10.00       10.00      10.000      10.000       9.998       9.986       9.921       9.563       7.801      1.8435E-02
  10    10.00       10.00      10.000      10.000       9.998       9.986       9.921       9.563       7.801      1.8435E-02
1
              HEAD IN LAYER   4 AT END OF TIME STEP   5 IN STRESS PERIOD    2
  ---------------------------------------------------------------------------

            1           2           3           4           5           6           7           8           9          10
 ........................................................................................................................
   1    10.00       10.00      10.000      10.000       9.998       9.985       9.912       9.522       7.644      1.8300E-02
   2    10.00       10.00      10.000      10.000       9.998       9.985       9.912       9.522       7.644      1.8300E-02
   3    10.00       10.00      10.000      10.000       9.998       9.985       9.912       9.522       7.644      1.8300E-02
   4    10.00       10.00      10.000      10.000       9.998       9.985       9.912       9.522       7.644      1.8300E-02
   5    10.00       10.00      10.000      10.000       9.998       9.985       9.912       9.522       7.644      1.8300E-02
   6    10.00       10.00      10.000      10.000       9.998       9.985       9.912       9.522       7.644      1.8300E-02
   7    10.00       10.00      10.000      10.000       9.998       9.985       9.912       9.522       7.644      1.8300E-02
   8    10.00       10.00      10.000      10.000       9.998       9.985       9.912       9.522       7.644      1.8300E-02
   9    10.00       10.00      10.000      10.000       9.998       9.985       9.912       9.522       7.644      1.8300E-02
  10    10.00       10.00      10.000      10.000       9.998       9.985       9.912       9.522       7.644      1.8300E-02
1
              HEAD IN LAYER   5 AT END OF TIME STEP   5 IN STRESS PERIOD    2
  ---------------------------------------------------------------------------

            1           2           3           4           5           6           7           8           9          10
 ........................................................................................................................
   1    10.00       10.00      10.000      10.000       9.997       9.984       9.907       9.501       7.567      1.8144E-02
   2    10.00       10.00      10.000      10.000       9.997       9.984       9.907       9.501       7.567      1.8144E-02
   3    10.00       10.00      10.000      10.000       9.997       9.984       9.907       9.501       7.567      1.8144E-02
   4    10.00       10.00      10.000      10.000       9.997       9.984       9.907       9.501       7.567      1.8144E-02
   5    10.00       10.00      10.000      10.000       9.997       9.984       9.907       9.501       7.567      1.8144E-02
   6    10.00       10.00      10.000      10.000       9.997       9.984       9.907       9.501       7.567      1.8144E-02
   7    10.00       10.00      10.000      10.000       9.997       9.984       9.907       9.501       7.567      1.8144E-02
   8    10.00       10.00      10.000      10.000       9.997       9.984       9.907       9.501       7.567      1.8144E-02
   9    10.00       10.00      10.000      10.000       9.997       9.984       9.907       9.501       7.567      1.8144E-02
  10    10.00       10.00      10.000      10.000       9.997       9.984       9.907       9.501       7.567      1.8144E-02

 HEAD WILL BE SAVED ON UNIT   51 AT END OF TIME STEP    5, STRESS PERIOD    2

 DRAWDOWN WILL BE SAVED ON UNIT   52 AT END OF TIME STEP    5, STRESS PERIOD    2
1
  VOLUMETRIC BUDGET FOR ENTIRE MODEL AT END OF TIME STEP    5, STRESS PERIOD   2
  ------------------------------------------------------------------------------

     CUMULATIVE VOLUMES      L**3       RATES FOR THIS TIME STEP      L**3/T
     ------------------                 ------------------------

           IN:                                      IN:
           ---                                      ---
             STORAGE =      126182.6875               STORAGE =        4035.3953
       CONSTANT HEAD =           0.0000         CONSTANT HEAD =           0.0000
               WELLS =           0.0000                 WELLS =           0.0000
     HEAD DEP BOUNDS =       8.0520E-03       HEAD DEP BOUNDS =       4.2290E-03

            TOTAL IN =      126182.6953              TOTAL IN =        4035.3994

          OUT:                                     OUT:
          ----                                     ----
             STORAGE =           0.0000               STORAGE =           0.0000
       CONSTANT HEAD =           0.0000         CONSTANT HEAD =           0.0000
               WELLS =           0.0000                 WELLS =           0.0000
     HEAD DEP BOUNDS =      126182.6797       HEAD DEP BOUNDS =        4035.3801

           TOTAL OUT =      126182.6797             TOTAL OUT =        4035.3801

            IN - OUT =       1.5625E-02              IN - OUT =       1.9287E-02

 PERCENT DISCREPANCY =           0.00     PERCENT DISCREPANCY =           0.00






         TIME SUMMARY AT END OF TIME STEP    5 IN STRESS PERIOD    2
                    SECONDS     MINUTES      HOURS       DAYS        YEARS
                    -----------------------------------------------------------
   TIME STEP LENGTH  86400.      1440.0      24.000      1.0000     2.73785E-03
 STRESS PERIOD TIME 4.32000E+05  7200.0      120.00      5.0000     1.36893E-02
         TOTAL TIME 5.18400E+05  8640.0      144.00      6.0000     1.64271E-02
1
 
 SOLVING FOR HEAD 

 OUTPUT CONTROL FOR STRESS PERIOD    2   TIME STEP    6
    SAVE HEAD FOR ALL LAYERS
    SAVE DRAWDOWN FOR ALL LAYERS
    SAVE BUDGET
    PRINT HEAD FOR ALL LAYERS
    PRINT BUDGET
 UBDSV1 SAVING "         STORAGE" ON UNIT  53 AT TIME STEP  6, STRESS PERIOD   2
 UBDSV2 SAVING "   CONSTANT HEAD" ON UNIT  53 AT TIME STEP  6, STRESS PERIOD   2
 UBDSV1 SAVING "FLOW RIGHT FACE " ON UNIT  53 AT TIME STEP  6, STRESS PERIOD   2
 UBDSV1 SAVING "FLOW FRONT FACE " ON UNIT  53 AT TIME STEP  6, STRESS PERIOD   2
 UBDSV1 SAVING "FLOW LOWER FACE " ON UNIT  53 AT TIME STEP  6, STRESS PERIOD   2
1
              HEAD IN LAYER   1 AT END OF TIME STEP   6 IN STRESS PERIOD    2
  ---------------------------------------------------------------------------

            1           2           3           4           5           6           7           8           9          10
 ........................................................................................................................
   1    10.00       10.00       10.00      10.000       9.998       9.988       9.931       9.618       8.080      7.9824E-03
   2    10.00       10.00       10.00      10.000       9.998       9.988       9.931       9.618       8.080      7.9824E-03
   3    10.00       10.00       10.00      10.000       9.998       9.988       9.931       9.618       8.080      7.9824E-03
   4    10.00       10.00       10.00      10.000       9.998       9.988       9.931       9.618       8.080      7.9824E-03
   5    10.00       10.00       10.00      10.000       9.998       9.988       9.931       9.618       8.080      7.9824E-03
   6    10.00       10.00       10.00      10.000       9.998       9.988       9.931       9.618       8.080      7.9824E-03
   7    10.00       10.00       10.00      10.000       9.998       9.988       9.931       9.618       8.080      7.9824E-03
   8    10.00       10.00       10.00      10.000       9.998       9.988       9.931       9.618       8.080      7.9824E-03
   9    10.00       10.00       10.00      10.000       9.998       9.988       9.931       9.618       8.080      7.9824E-03
  10    10.00       10.00       10.00      10.000       9.998       9.988       9.931       9.618       8.080      7.9824E-03
1
              HEAD IN LAYER   2 AT END OF TIME STEP   6 IN STRESS PERIOD    2
  ---------------------------------------------------------------------------

            1           2           3           4           5           6           7           8           9          10
 ........................................................................................................................
   1    10.00       10.00      10.000      10.000       9.997       9.984       9.912       9.538       7.796      1.6479E-02
   2    10.00       10.00      10.000      10.000       9.997       9.984       9.912       9.538       7.796      1.6479E-02
   3    10.00       10.00      10.000      10.000       9.997       9.984       9.912       9.538       7.796      1.6479E-02
   4    10.00       10.00      10.000      10.000       9.997       9.984       9.912       9.538       7.796      1.6479E-02
   5    10.00       10.00      10.000      10.000       9.997       9.984       9.912       9.538       7.796      1.6479E-02
   6    10.00       10.00      10.000      10.000       9.997       9.984       9.912       9.538       7.796      1.6479E-02
   7    10.00       10.00      10.000      10.000       9.997       9.984       9.912       9.538       7.796      1.6479E-02
   8    10.00       10.00      10.000      10.000       9.997       9.984       9.912       9.538       7.796      1.6479E-02
   9    10.00       10.00      10.000      10.000       9.997       9.984       9.912       9.538       7.796      1.6479E-02
  10    10.00       10.00      10.000      10.000       9.997       9.984       9.912       9.538       7.796      1.6479E-02
1
              HEAD IN LAYER   3 AT END OF TIME STEP   6 IN STRESS PERIOD    2
  ---------------------------------------------------------------------------

            1           2           3           4           5           6           7           8           9          10
 ........................................................................................................................
   1    10.00       10.00      10.000       9.999       9.997       9.981       9.898       9.475       7.570      1.7877E-02
   2    10.00       10.00      10.000       9.999       9.997       9.981       9.898       9.475       7.570      1.7877E-02
   3    10.00       10.00      10.000       9.999       9.997       9.981       9.898       9.475       7.570      1.7877E-02
   4    10.00       10.00      10.000       9.999       9.997       9.981       9.898       9.475       7.570      1.7877E-02
   5    10.00       10.00      10.000       9.999       9.997       9.981       9.898       9.475       7.570      1.7877E-02
   6    10.00       10.00      10.000       9.999       9.997       9.981       9.898       9.475       7.570      1.7877E-02
   7    10.00       10.00      10.000       9.999       9.997       9.981       9.898       9.475       7.570      1.7877E-02
   8    10.00       10.00      10.000       9.999       9.997       9.981       9.898       9.475       7.570      1.7877E-02
   9    10.00       10.00      10.000       9.999       9.997       9.981       9.898       9.475       7.570      1.7877E-02
  10    10.00       10.00      10.000       9.999       9.997       9.981       9.898       9.475       7.570      1.7877E-02
1
              HEAD IN LAYER   4 AT END OF TIME STEP   6 IN STRESS PERIOD    2
  ---------------------------------------------------------------------------

            1           2           3           4           5           6           7           8           9          10
 ........................................................................................................................
   1    10.00       10.00      10.000       9.999       9.996       9.979       9.888       9.433       7.423      1.7768E-02
   2    10.00       10.00      10.000       9.999       9.996       9.979       9.888       9.433       7.423      1.7768E-02
   3    10.00       10.00      10.000       9.999       9.996       9.979       9.888       9.433       7.423      1.7768E-02
   4    10.00       10.00      10.000       9.999       9.996       9.979       9.888       9.433       7.423      1.7768E-02
   5    10.00       10.00      10.000       9.999       9.996       9.979       9.888       9.433       7.423      1.7768E-02
   6    10.00       10.00      10.000       9.999       9.996       9.979       9.888       9.433       7.423      1.7768E-02
   7    10.00       10.00      10.000       9.999       9.996       9.979       9.888       9.433       7.423      1.7768E-02
   8    10.00       10.00      10.000       9.999       9.996       9.979       9.888       9.433       7.423      1.7768E-02
   9    10.00       10.00      10.000       9.999       9.996       9.979       9.888       9.433       7.423      1.7768E-02
  10    10.00       10.00      10.000       9.999       9.996       9.979       9.888       9.433       7.423      1.7768E-02
1
              HEAD IN LAYER   5 AT END OF TIME STEP   6 IN STRESS PERIOD    2
  ---------------------------------------------------------------------------

            1           2           3           4           5           6           7           8           9          10
 ........................................................................................................................
   1    10.00       10.00      10.000       9.999       9.996       9.978       9.883       9.411       7.350      1.7624E-02
   2    10.00       10.00      10.000       9.999       9.996       9.978       9.883       9.411       7.350      1.7624E-02
   3    10.00       10.00      10.000       9.999       9.996       9.978       9.883       9.411       7.350      1.7624E-02
   4    10.00       10.00      10.000       9.999       9.996       9.978       9.883       9.411       7.350      1.7624E-02
   5    10.00       10.00      10.000       9.999       9.996       9.978       9.883       9.411       7.350      1.7624E-02
   6    10.00       10.00      10.000       9.999       9.996       9.978       9.883       9.411       7.350      1.7624E-02
   7    10.00       10.00      10.000       9.999       9.996       9.978       9.883       9.411       7.350      1.7624E-02
   8    10.00       10.00      10.000       9.999       9.996       9.978       9.883       9.411       7.350      1.7624E-02
   9    10.00       10.00      10.000       9.999       9.996       9.978       9.883       9.411       7.350      1.7624E-02
  10    10.00       10.00      10.000       9.999       9.996       9.978       9.883       9.411       7.350      1.7624E-02

 HEAD WILL BE SAVED ON UNIT   51 AT END OF TIME STEP    6, STRESS PERIOD    2

 DRAWDOWN WILL BE SAVED ON UNIT   52 AT END OF TIME STEP    6, STRESS PERIOD    2
1
  VOLUMETRIC BUDGET FOR ENTIRE MODEL AT END OF TIME STEP    6, STRESS PERIOD   2
  ------------------------------------------------------------------------------

     CUMULATIVE VOLUMES      L**3       RATES FOR THIS TIME STEP      L**3/T
     ------------------                 ------------------------

           IN:                                      IN:
           ---                                      ---
             STORAGE =      130069.1641               STORAGE =        3886.4758
       CONSTANT HEAD =           0.0000         CONSTANT HEAD =           0.0000
               WELLS =           0.0000                 WELLS =           0.0000
     HEAD DEP BOUNDS =       1.5122E-02       HEAD DEP BOUNDS =       7.0703E-03

            TOTAL IN =      130069.1797              TOTAL IN =        3886.4829

          OUT:                                     OUT:
          ----                                     ----
             STORAGE =           0.0000               STORAGE =           0.0000
       CONSTANT HEAD =           0.0000         CONSTANT HEAD =           0.0000
               WELLS =           0.0000                 WELLS =           0.0000
     HEAD DEP BOUNDS =      130069.1719       HEAD DEP BOUNDS =        3886.4932

           TOTAL OUT =      130069.1719             TOTAL OUT =        3886.4932

            IN - OUT =       7.8125E-03              IN - OUT =      -1.0254E-02

 PERCENT DISCREPANCY =           0.00     PERCENT DISCREPANCY =          -0.00






         TIME SUMMARY AT END OF TIME STEP    6 IN STRESS PERIOD    2
                    SECONDS     MINUTES      HOURS       DAYS        YEARS
                    -----------------------------------------------------------
   TIME STEP LENGTH  86400.      1440.0      24.000      1.0000     2.73785E-03
 STRESS PERIOD TIME 5.18400E+05  8640.0      144.00      6.0000     1.64271E-02
         TOTAL TIME 6.04800E+05  10080.      168.00      7.0000     1.91650E-02
1
 
 SOLVING FOR HEAD 

 OUTPUT CONTROL FOR STRESS PERIOD    2   TIME STEP    7
    SAVE HEAD FOR ALL LAYERS
    SAVE DRAWDOWN FOR ALL LAYERS
    SAVE BUDGET
    PRINT HEAD FOR ALL LAYERS
    PRINT BUDGET
 UBDSV1 SAVING "         STORAGE" ON UNIT  53 AT TIME STEP  7, STRESS PERIOD   2
 UBDSV2 SAVING "   CONSTANT HEAD" ON UNIT  53 AT TIME STEP  7, STRESS PERIOD   2
 UBDSV1 SAVING "FLOW RIGHT FACE " ON UNIT  53 AT TIME STEP  7, STRESS PERIOD   2
 UBDSV1 SAVING "FLOW FRONT FACE " ON UNIT  53 AT TIME STEP  7, STRESS PERIOD   2
 UBDSV1 SAVING "FLOW LOWER FACE " ON UNIT  53 AT TIME STEP  7, STRESS PERIOD   2
1
              HEAD IN LAYER   1 AT END OF TIME STEP   7 IN STRESS PERIOD    2
  ---------------------------------------------------------------------------

            1           2           3           4           5           6           7           8           9          10
 ........................................................................................................................
   1    10.00       10.00      10.000      10.000       9.997       9.984       9.910       9.534       7.830      7.6573E-03
   2    10.00       10.00      10.000      10.000       9.997       9.984       9.910       9.534       7.830      7.6573E-03
   3    10.00       10.00      10.000      10.000       9.997       9.984       9.910       9.534       7.830      7.6573E-03
   4    10.00       10.00      10.000      10.000       9.997       9.984       9.910       9.534       7.830      7.6573E-03
   5    10.00       10.00      10.000      10.000       9.997       9.984       9.910       9.534       7.830      7.6573E-03
   6    10.00       10.00      10.000      10.000       9.997       9.984       9.910       9.534       7.830      7.6573E-03
   7    10.00       10.00      10.000      10.000       9.997       9.984       9.910       9.534       7.830      7.6573E-03
   8    10.00       10.00      10.000      10.000       9.997       9.984       9.910       9.534       7.830      7.6573E-03
   9    10.00       10.00      10.000      10.000       9.997       9.984       9.910       9.534       7.830      7.6573E-03
  10    10.00       10.00      10.000      10.000       9.997       9.984       9.910       9.534       7.830      7.6573E-03
1
              HEAD IN LAYER   2 AT END OF TIME STEP   7 IN STRESS PERIOD    2
  ---------------------------------------------------------------------------

            1           2           3           4           5           6           7           8           9          10
 ........................................................................................................................
   1    10.00       10.00      10.000       9.999       9.996       9.979       9.889       9.451       7.566      1.5977E-02
   2    10.00       10.00      10.000       9.999       9.996       9.979       9.889       9.451       7.566      1.5977E-02
   3    10.00       10.00      10.000       9.999       9.996       9.979       9.889       9.451       7.566      1.5977E-02
   4    10.00       10.00      10.000       9.999       9.996       9.979       9.889       9.451       7.566      1.5977E-02
   5    10.00       10.00      10.000       9.999       9.996       9.979       9.889       9.451       7.566      1.5977E-02
   6    10.00       10.00      10.000       9.999       9.996       9.979       9.889       9.451       7.566      1.5977E-02
   7    10.00       10.00      10.000       9.999       9.996       9.979       9.889       9.451       7.566      1.5977E-02
   8    10.00       10.00      10.000       9.999       9.996       9.979       9.889       9.451       7.566      1.5977E-02
   9    10.00       10.00      10.000       9.999       9.996       9.979       9.889       9.451       7.566      1.5977E-02
  10    10.00       10.00      10.000       9.999       9.996       9.979       9.889       9.451       7.566      1.5977E-02
1
              HEAD IN LAYER   3 AT END OF TIME STEP   7 IN STRESS PERIOD    2
  ---------------------------------------------------------------------------

            1           2           3           4           5           6           7           8           9          10
 ........................................................................................................................
   1    10.00       10.00      10.000       9.999       9.996       9.976       9.873       9.386       7.354      1.7364E-02
   2    10.00       10.00      10.000       9.999       9.996       9.976       9.873       9.386       7.354      1.7364E-02
   3    10.00       10.00      10.000       9.999       9.996       9.976       9.873       9.386       7.354      1.7364E-02
   4    10.00       10.00      10.000       9.999       9.996       9.976       9.873       9.386       7.354      1.7364E-02
   5    10.00       10.00      10.000       9.999       9.996       9.976       9.873       9.386       7.354      1.7364E-02
   6    10.00       10.00      10.000       9.999       9.996       9.976       9.873       9.386       7.354      1.7364E-02
   7    10.00       10.00      10.000       9.999       9.996       9.976       9.873       9.386       7.354      1.7364E-02
   8    10.00       10.00      10.000       9.999       9.996       9.976       9.873       9.386       7.354      1.7364E-02
   9    10.00       10.00      10.000       9.999       9.996       9.976       9.873       9.386       7.354      1.7364E-02
  10    10.00       10.00      10.000       9.999       9.996       9.976       9.873       9.386       7.354      1.7364E-02
1
              HEAD IN LAYER   4 AT END OF TIME STEP   7 IN STRESS PERIOD    2
  ---------------------------------------------------------------------------

            1           2           3           4           5           6           7           8           9          10
 ........................................................................................................................
   1    10.00       10.00      10.000       9.999       9.995       9.973       9.861       9.342       7.216      1.7271E-02
   2    10.00       10.00      10.000       9.999       9.995       9.973       9.861       9.342       7.216      1.7271E-02
   3    10.00       10.00      10.000       9.999       9.995       9.973       9.861       9.342       7.216      1.7271E-02
   4    10.00       10.00      10.000       9.999       9.995       9.973       9.861       9.342       7.216      1.7271E-02
   5    10.00       10.00      10.000       9.999       9.995       9.973       9.861       9.342       7.216      1.7271E-02
   6    10.00       10.00      10.000       9.999       9.995       9.973       9.861       9.342       7.216      1.7271E-02
   7    10.00       10.00      10.000       9.999       9.995       9.973       9.861       9.342       7.216      1.7271E-02
   8    10.00       10.00      10.000       9.999       9.995       9.973       9.861       9.342       7.216      1.7271E-02
   9    10.00       10.00      10.000       9.999       9.995       9.973       9.861       9.342       7.216      1.7271E-02
  10    10.00       10.00      10.000       9.999       9.995       9.973       9.861       9.342       7.216      1.7271E-02
1
              HEAD IN LAYER   5 AT END OF TIME STEP   7 IN STRESS PERIOD    2
  ---------------------------------------------------------------------------

            1           2           3           4           5           6           7           8           9          10
 ........................................................................................................................
   1    10.00       10.00      10.000       9.999       9.995       9.972       9.856       9.320       7.147      1.7136E-02
   2    10.00       10.00      10.000       9.999       9.995       9.972       9.856       9.320       7.147      1.7136E-02
   3    10.00       10.00      10.000       9.999       9.995       9.972       9.856       9.320       7.147      1.7136E-02
   4    10.00       10.00      10.000       9.999       9.995       9.972       9.856       9.320       7.147      1.7136E-02
   5    10.00       10.00      10.000       9.999       9.995       9.972       9.856       9.320       7.147      1.7136E-02
   6    10.00       10.00      10.000       9.999       9.995       9.972       9.856       9.320       7.147      1.7136E-02
   7    10.00       10.00      10.000       9.999       9.995       9.972       9.856       9.320       7.147      1.7136E-02
   8    10.00       10.00      10.000       9.999       9.995       9.972       9.856       9.320       7.147      1.7136E-02
   9    10.00       10.00      10.000       9.999       9.995       9.972       9.856       9.320       7.147      1.7136E-02
  10    10.00       10.00      10.000       9.999       9.995       9.972       9.856       9.320       7.147      1.7136E-02

 HEAD WILL BE SAVED ON UNIT   51 AT END OF TIME STEP    7, STRESS PERIOD    2

 DRAWDOWN WILL BE SAVED ON UNIT   52 AT END OF TIME STEP    7, STRESS PERIOD    2
1
  VOLUMETRIC BUDGET FOR ENTIRE MODEL AT END OF TIME STEP    7, STRESS PERIOD   2
  ------------------------------------------------------------------------------

     CUMULATIVE VOLUMES      L**3       RATES FOR THIS TIME STEP      L**3/T
     ------------------                 ------------------------

           IN:                                      IN:
           ---                                      ---
             STORAGE =      133839.3906               STORAGE =        3770.2290
       CONSTANT HEAD =           0.0000         CONSTANT HEAD =           0.0000
               WELLS =           0.0000                 WELLS =           0.0000
     HEAD DEP BOUNDS =       2.6242E-02       HEAD DEP BOUNDS =       1.1119E-02

            TOTAL IN =      133839.4219              TOTAL IN =        3770.2402

          OUT:                                     OUT:
          ----                                     ----
             STORAGE =           0.0000               STORAGE =           0.0000
       CONSTANT HEAD =           0.0000         CONSTANT HEAD =           0.0000
               WELLS =           0.0000                 WELLS =           0.0000
     HEAD DEP BOUNDS =      133839.4219       HEAD DEP BOUNDS =        3770.2537

           TOTAL OUT =      133839.4219             TOTAL OUT =        3770.2537

            IN - OUT =           0.0000              IN - OUT =      -1.3428E-02

 PERCENT DISCREPANCY =           0.00     PERCENT DISCREPANCY =          -0.00






         TIME SUMMARY AT END OF TIME STEP    7 IN STRESS PERIOD    2
                    SECONDS     MINUTES      HOURS       DAYS        YEARS
                    -----------------------------------------------------------
   TIME STEP LENGTH  86400.      1440.0      24.000      1.0000     2.73785E-03
 STRESS PERIOD TIME 6.04800E+05  10080.      168.00      7.0000     1.91650E-02
         TOTAL TIME 6.91200E+05  11520.      192.00      8.0000     2.19028E-02
1
 
 SOLVING FOR HEAD 

 OUTPUT CONTROL FOR STRESS PERIOD    2   TIME STEP    8
    SAVE HEAD FOR ALL LAYERS
    SAVE DRAWDOWN FOR ALL LAYERS
    SAVE BUDGET
    PRINT HEAD FOR ALL LAYERS
    PRINT BUDGET
 UBDSV1 SAVING "         STORAGE" ON UNIT  53 AT TIME STEP  8, STRESS PERIOD   2
 UBDSV2 SAVING "   CONSTANT HEAD" ON UNIT  53 AT TIME STEP  8, STRESS PERIOD   2
 UBDSV1 SAVING "FLOW RIGHT FACE " ON UNIT  53 AT TIME STEP  8, STRESS PERIOD   2
 UBDSV1 SAVING "FLOW FRONT FACE " ON UNIT  53 AT TIME STEP  8, STRESS PERIOD   2
 UBDSV1 SAVING "FLOW LOWER FACE " ON UNIT  53 AT TIME STEP  8, STRESS PERIOD   2
1
              HEAD IN LAYER   1 AT END OF TIME STEP   8 IN STRESS PERIOD    2
  ---------------------------------------------------------------------------

            1           2           3           4           5           6           7           8           9          10
 ........................................................................................................................
   1    10.00       10.00      10.000       9.999       9.996       9.978       9.886       9.447       7.597      7.4063E-03
   2    10.00       10.00      10.000       9.999       9.996       9.978       9.886       9.447       7.597      7.4063E-03
   3    10.00       10.00      10.000       9.999       9.996       9.978       9.886       9.447       7.597      7.4063E-03
   4    10.00       10.00      10.000       9.999       9.996       9.978       9.886       9.447       7.597      7.4063E-03
   5    10.00       10.00      10.000       9.999       9.996       9.978       9.886       9.447       7.597      7.4063E-03
   6    10.00       10.00      10.000       9.999       9.996       9.978       9.886       9.447       7.597      7.4063E-03
   7    10.00       10.00      10.000       9.999       9.996       9.978       9.886       9.447       7.597      7.4063E-03
   8    10.00       10.00      10.000       9.999       9.996       9.978       9.886       9.447       7.597      7.4063E-03
   9    10.00       10.00      10.000       9.999       9.996       9.978       9.886       9.447       7.597      7.4063E-03
  10    10.00       10.00      10.000       9.999       9.996       9.978       9.886       9.447       7.597      7.4063E-03
1
              HEAD IN LAYER   2 AT END OF TIME STEP   8 IN STRESS PERIOD    2
  ---------------------------------------------------------------------------

            1           2           3           4           5           6           7           8           9          10
 ........................................................................................................................
   1    10.00       10.00      10.000       9.999       9.995       9.973       9.863       9.362       7.351      1.5518E-02
   2    10.00       10.00      10.000       9.999       9.995       9.973       9.863       9.362       7.351      1.5518E-02
   3    10.00       10.00      10.000       9.999       9.995       9.973       9.863       9.362       7.351      1.5518E-02
   4    10.00       10.00      10.000       9.999       9.995       9.973       9.863       9.362       7.351      1.5518E-02
   5    10.00       10.00      10.000       9.999       9.995       9.973       9.863       9.362       7.351      1.5518E-02
   6    10.00       10.00      10.000       9.999       9.995       9.973       9.863       9.362       7.351      1.5518E-02
   7    10.00       10.00      10.000       9.999       9.995       9.973       9.863       9.362       7.351      1.5518E-02
   8    10.00       10.00      10.000       9.999       9.995       9.973       9.863       9.362       7.351      1.5518E-02
   9    10.00       10.00      10.000       9.999       9.995       9.973       9.863       9.362       7.351      1.5518E-02
  10    10.00       10.00      10.000       9.999       9.995       9.973       9.863       9.362       7.351      1.5518E-02
1
              HEAD IN LAYER   3 AT END OF TIME STEP   8 IN STRESS PERIOD    2
  ---------------------------------------------------------------------------

            1           2           3           4           5           6           7           8           9          10
 ........................................................................................................................
   1    10.00       10.00      10.000       9.999       9.994       9.969       9.845       9.295       7.152      1.6884E-02
   2    10.00       10.00      10.000       9.999       9.994       9.969       9.845       9.295       7.152      1.6884E-02
   3    10.00       10.00      10.000       9.999       9.994       9.969       9.845       9.295       7.152      1.6884E-02
   4    10.00       10.00      10.000       9.999       9.994       9.969       9.845       9.295       7.152      1.6884E-02
   5    10.00       10.00      10.000       9.999       9.994       9.969       9.845       9.295       7.152      1.6884E-02
   6    10.00       10.00      10.000       9.999       9.994       9.969       9.845       9.295       7.152      1.6884E-02
   7    10.00       10.00      10.000       9.999       9.994       9.969       9.845       9.295       7.152      1.6884E-02
   8    10.00       10.00      10.000       9.999       9.994       9.969       9.845       9.295       7.152      1.6884E-02
   9    10.00       10.00      10.000       9.999       9.994       9.969       9.845       9.295       7.152      1.6884E-02
  10    10.00       10.00      10.000       9.999       9.994       9.969       9.845       9.295       7.152      1.6884E-02
1
              HEAD IN LAYER   4 AT END OF TIME STEP   8 IN STRESS PERIOD    2
  ---------------------------------------------------------------------------

            1           2           3           4           5           6           7           8           9          10
 ........................................................................................................................
   1    10.00       10.00      10.000       9.999       9.993       9.966       9.833       9.250       7.021      1.6804E-02
   2    10.00       10.00      10.000       9.999       9.993       9.966       9.833       9.250       7.021      1.6804E-02
   3    10.00       10.00      10.000       9.999       9.993       9.966       9.833       9.250       7.021      1.6804E-02
   4    10.00       10.00      10.000       9.999       9.993       9.966       9.833       9.250       7.021      1.6804E-02
   5    10.00       10.00      10.000       9.999       9.993       9.966       9.833       9.250       7.021      1.6804E-02
   6    10.00       10.00      10.000       9.999       9.993       9.966       9.833       9.250       7.021      1.6804E-02
   7    10.00       10.00      10.000       9.999       9.993       9.966       9.833       9.250       7.021      1.6804E-02
   8    10.00       10.00      10.000       9.999       9.993       9.966       9.833       9.250       7.021      1.6804E-02
   9    10.00       10.00      10.000       9.999       9.993       9.966       9.833       9.250       7.021      1.6804E-02
  10    10.00       10.00      10.000       9.999       9.993       9.966       9.833       9.250       7.021      1.6804E-02
1
              HEAD IN LAYER   5 AT END OF TIME STEP   8 IN STRESS PERIOD    2
  ---------------------------------------------------------------------------

            1           2           3           4           5           6           7           8           9          10
 ........................................................................................................................
   1    10.00       10.00      10.000       9.999       9.993       9.964       9.827       9.227       6.957      1.6678E-02
   2    10.00       10.00      10.000       9.999       9.993       9.964       9.827       9.227       6.957      1.6678E-02
   3    10.00       10.00      10.000       9.999       9.993       9.964       9.827       9.227       6.957      1.6678E-02
   4    10.00       10.00      10.000       9.999       9.993       9.964       9.827       9.227       6.957      1.6678E-02
   5    10.00       10.00      10.000       9.999       9.993       9.964       9.827       9.227       6.957      1.6678E-02
   6    10.00       10.00      10.000       9.999       9.993       9.964       9.827       9.227       6.957      1.6678E-02
   7    10.00       10.00      10.000       9.999       9.993       9.964       9.827       9.227       6.957      1.6678E-02
   8    10.00       10.00      10.000       9.999       9.993       9.964       9.827       9.227       6.957      1.6678E-02
   9    10.00       10.00      10.000       9.999       9.993       9.964       9.827       9.227       6.957      1.6678E-02
  10    10.00       10.00      10.000       9.999       9.993       9.964       9.827       9.227       6.957      1.6678E-02

 HEAD WILL BE SAVED ON UNIT   51 AT END OF TIME STEP    8, STRESS PERIOD    2

 DRAWDOWN WILL BE SAVED ON UNIT   52 AT END OF TIME STEP    8, STRESS PERIOD    2
1
  VOLUMETRIC BUDGET FOR ENTIRE MODEL AT END OF TIME STEP    8, STRESS PERIOD   2
  ------------------------------------------------------------------------------

     CUMULATIVE VOLUMES      L**3       RATES FOR THIS TIME STEP      L**3/T
     ------------------                 ------------------------

           IN:                                      IN:
           ---                                      ---
             STORAGE =      137503.8594               STORAGE =        3664.4688
       CONSTANT HEAD =           0.0000         CONSTANT HEAD =           0.0000
               WELLS =           0.0000                 WELLS =           0.0000
     HEAD DEP BOUNDS =       4.3160E-02       HEAD DEP BOUNDS =       1.6918E-02

            TOTAL IN =      137503.9062              TOTAL IN =        3664.4856

          OUT:                                     OUT:
          ----                                     ----
             STORAGE =           0.0000               STORAGE =           0.0000
       CONSTANT HEAD =           0.0000         CONSTANT HEAD =           0.0000
               WELLS =           0.0000                 WELLS =           0.0000
     HEAD DEP BOUNDS =      137503.9062       HEAD DEP BOUNDS =        3664.4844

           TOTAL OUT =      137503.9062             TOTAL OUT =        3664.4844

            IN - OUT =           0.0000              IN - OUT =       1.2207E-03

 PERCENT DISCREPANCY =           0.00     PERCENT DISCREPANCY =           0.00






         TIME SUMMARY AT END OF TIME STEP    8 IN STRESS PERIOD    2
                    SECONDS     MINUTES      HOURS       DAYS        YEARS
                    -----------------------------------------------------------
   TIME STEP LENGTH  86400.      1440.0      24.000      1.0000     2.73785E-03
 STRESS PERIOD TIME 6.91200E+05  11520.      192.00      8.0000     2.19028E-02
         TOTAL TIME 7.77600E+05  12960.      216.00      9.0000     2.46407E-02
1
 
 SOLVING FOR HEAD 

 OUTPUT CONTROL FOR STRESS PERIOD    2   TIME STEP    9
    SAVE HEAD FOR ALL LAYERS
    SAVE DRAWDOWN FOR ALL LAYERS
    SAVE BUDGET
    PRINT HEAD FOR ALL LAYERS
    PRINT BUDGET
 UBDSV1 SAVING "         STORAGE" ON UNIT  53 AT TIME STEP  9, STRESS PERIOD   2
 UBDSV2 SAVING "   CONSTANT HEAD" ON UNIT  53 AT TIME STEP  9, STRESS PERIOD   2
 UBDSV1 SAVING "FLOW RIGHT FACE " ON UNIT  53 AT TIME STEP  9, STRESS PERIOD   2
 UBDSV1 SAVING "FLOW FRONT FACE " ON UNIT  53 AT TIME STEP  9, STRESS PERIOD   2
 UBDSV1 SAVING "FLOW LOWER FACE " ON UNIT  53 AT TIME STEP  9, STRESS PERIOD   2
1
              HEAD IN LAYER   1 AT END OF TIME STEP   9 IN STRESS PERIOD    2
  ---------------------------------------------------------------------------

            1           2           3           4           5           6           7           8           9          10
 ........................................................................................................................
   1    10.00       10.00      10.000       9.999       9.995       9.972       9.861       9.358       7.378      7.1789E-03
   2    10.00       10.00      10.000       9.999       9.995       9.972       9.861       9.358       7.378      7.1789E-03
   3    10.00       10.00      10.000       9.999       9.995       9.972       9.861       9.358       7.378      7.1789E-03
   4    10.00       10.00      10.000       9.999       9.995       9.972       9.861       9.358       7.378      7.1789E-03
   5    10.00       10.00      10.000       9.999       9.995       9.972       9.861       9.358       7.378      7.1789E-03
   6    10.00       10.00      10.000       9.999       9.995       9.972       9.861       9.358       7.378      7.1789E-03
   7    10.00       10.00      10.000       9.999       9.995       9.972       9.861       9.358       7.378      7.1789E-03
   8    10.00       10.00      10.000       9.999       9.995       9.972       9.861       9.358       7.378      7.1789E-03
   9    10.00       10.00      10.000       9.999       9.995       9.972       9.861       9.358       7.378      7.1789E-03
  10    10.00       10.00      10.000       9.999       9.995       9.972       9.861       9.358       7.378      7.1789E-03
1
              HEAD IN LAYER   2 AT END OF TIME STEP   9 IN STRESS PERIOD    2
  ---------------------------------------------------------------------------

            1           2           3           4           5           6           7           8           9          10
 ........................................................................................................................
   1    10.00       10.00      10.000       9.999       9.993       9.966       9.835       9.271       7.149      1.5088E-02
   2    10.00       10.00      10.000       9.999       9.993       9.966       9.835       9.271       7.149      1.5088E-02
   3    10.00       10.00      10.000       9.999       9.993       9.966       9.835       9.271       7.149      1.5088E-02
   4    10.00       10.00      10.000       9.999       9.993       9.966       9.835       9.271       7.149      1.5088E-02
   5    10.00       10.00      10.000       9.999       9.993       9.966       9.835       9.271       7.149      1.5088E-02
   6    10.00       10.00      10.000       9.999       9.993       9.966       9.835       9.271       7.149      1.5088E-02
   7    10.00       10.00      10.000       9.999       9.993       9.966       9.835       9.271       7.149      1.5088E-02
   8    10.00       10.00      10.000       9.999       9.993       9.966       9.835       9.271       7.149      1.5088E-02
   9    10.00       10.00      10.000       9.999       9.993       9.966       9.835       9.271       7.149      1.5088E-02
  10    10.00       10.00      10.000       9.999       9.993       9.966       9.835       9.271       7.149      1.5088E-02
1
              HEAD IN LAYER   3 AT END OF TIME STEP   9 IN STRESS PERIOD    2
  ---------------------------------------------------------------------------

            1           2           3           4           5           6           7           8           9          10
 ........................................................................................................................
   1    10.00       10.00      10.000       9.999       9.992       9.961       9.816       9.203       6.961      1.6433E-02
   2    10.00       10.00      10.000       9.999       9.992       9.961       9.816       9.203       6.961      1.6433E-02
   3    10.00       10.00      10.000       9.999       9.992       9.961       9.816       9.203       6.961      1.6433E-02
   4    10.00       10.00      10.000       9.999       9.992       9.961       9.816       9.203       6.961      1.6433E-02
   5    10.00       10.00      10.000       9.999       9.992       9.961       9.816       9.203       6.961      1.6433E-02
   6    10.00       10.00      10.000       9.999       9.992       9.961       9.816       9.203       6.961      1.6433E-02
   7    10.00       10.00      10.000       9.999       9.992       9.961       9.816       9.203       6.961      1.6433E-02
   8    10.00       10.00      10.000       9.999       9.992       9.961       9.816       9.203       6.961      1.6433E-02
   9    10.00       10.00      10.000       9.999       9.992       9.961       9.816       9.203       6.961      1.6433E-02
  10    10.00       10.00      10.000       9.999       9.992       9.961       9.816       9.203       6.961      1.6433E-02
1
              HEAD IN LAYER   4 AT END OF TIME STEP   9 IN STRESS PERIOD    2
  ---------------------------------------------------------------------------

            1           2           3           4           5           6           7           8           9          10
 ........................................................................................................................
   1    10.00      10.000      10.000       9.998       9.992       9.958       9.802       9.158       6.838      1.6365E-02
   2    10.00      10.000      10.000       9.998       9.992       9.958       9.802       9.158       6.838      1.6365E-02
   3    10.00      10.000      10.000       9.998       9.992       9.958       9.802       9.158       6.838      1.6365E-02
   4    10.00      10.000      10.000       9.998       9.992       9.958       9.802       9.158       6.838      1.6365E-02
   5    10.00      10.000      10.000       9.998       9.992       9.958       9.802       9.158       6.838      1.6365E-02
   6    10.00      10.000      10.000       9.998       9.992       9.958       9.802       9.158       6.838      1.6365E-02
   7    10.00      10.000      10.000       9.998       9.992       9.958       9.802       9.158       6.838      1.6365E-02
   8    10.00      10.000      10.000       9.998       9.992       9.958       9.802       9.158       6.838      1.6365E-02
   9    10.00      10.000      10.000       9.998       9.992       9.958       9.802       9.158       6.838      1.6365E-02
  10    10.00      10.000      10.000       9.998       9.992       9.958       9.802       9.158       6.838      1.6365E-02
1
              HEAD IN LAYER   5 AT END OF TIME STEP   9 IN STRESS PERIOD    2
  ---------------------------------------------------------------------------

            1           2           3           4           5           6           7           8           9          10
 ........................................................................................................................
   1    10.00      10.000      10.000       9.998       9.991       9.956       9.795       9.134       6.777      1.6247E-02
   2    10.00      10.000      10.000       9.998       9.991       9.956       9.795       9.134       6.777      1.6247E-02
   3    10.00      10.000      10.000       9.998       9.991       9.956       9.795       9.134       6.777      1.6247E-02
   4    10.00      10.000      10.000       9.998       9.991       9.956       9.795       9.134       6.777      1.6247E-02
   5    10.00      10.000      10.000       9.998       9.991       9.956       9.795       9.134       6.777      1.6247E-02
   6    10.00      10.000      10.000       9.998       9.991       9.956       9.795       9.134       6.777      1.6247E-02
   7    10.00      10.000      10.000       9.998       9.991       9.956       9.795       9.134       6.777      1.6247E-02
   8    10.00      10.000      10.000       9.998       9.991       9.956       9.795       9.134       6.777      1.6247E-02
   9    10.00      10.000      10.000       9.998       9.991       9.956       9.795       9.134       6.777      1.6247E-02
  10    10.00      10.000      10.000       9.998       9.991       9.956       9.795       9.134       6.777      1.6247E-02

 HEAD WILL BE SAVED ON UNIT   51 AT END OF TIME STEP    9, STRESS PERIOD    2

 DRAWDOWN WILL BE SAVED ON UNIT   52 AT END OF TIME STEP    9, STRESS PERIOD    2
1
  VOLUMETRIC BUDGET FOR ENTIRE MODEL AT END OF TIME STEP    9, STRESS PERIOD   2
  ------------------------------------------------------------------------------

     CUMULATIVE VOLUMES      L**3       RATES FOR THIS TIME STEP      L**3/T
     ------------------                 ------------------------

           IN:                                      IN:
           ---                                      ---
             STORAGE =      141069.4219               STORAGE =        3565.5605
       CONSTANT HEAD =           0.0000         CONSTANT HEAD =           0.0000
               WELLS =           0.0000                 WELLS =           0.0000
     HEAD DEP BOUNDS =       6.8095E-02       HEAD DEP BOUNDS =       2.4935E-02

            TOTAL IN =      141069.4844              TOTAL IN =        3565.5854

          OUT:                                     OUT:
          ----                                     ----
             STORAGE =           0.0000               STORAGE =           0.0000
       CONSTANT HEAD =           0.0000         CONSTANT HEAD =           0.0000
               WELLS =           0.0000                 WELLS =           0.0000
     HEAD DEP BOUNDS =      141069.5156       HEAD DEP BOUNDS =        3565.6045

           TOTAL OUT =      141069.5156             TOTAL OUT =        3565.6045

            IN - OUT =      -3.1250E-02              IN - OUT =      -1.9043E-02

 PERCENT DISCREPANCY =          -0.00     PERCENT DISCREPANCY =          -0.00






         TIME SUMMARY AT END OF TIME STEP    9 IN STRESS PERIOD    2
                    SECONDS     MINUTES      HOURS       DAYS        YEARS
                    -----------------------------------------------------------
   TIME STEP LENGTH  86400.      1440.0      24.000      1.0000     2.73785E-03
 STRESS PERIOD TIME 7.77600E+05  12960.      216.00      9.0000     2.46407E-02
         TOTAL TIME 8.64000E+05  14400.      240.00      10.000     2.73785E-02
1
 
 SOLVING FOR HEAD 

 OUTPUT CONTROL FOR STRESS PERIOD    2   TIME STEP   10
    SAVE HEAD FOR ALL LAYERS
    SAVE DRAWDOWN FOR ALL LAYERS
    SAVE BUDGET
    PRINT HEAD FOR ALL LAYERS
    PRINT BUDGET
 UBDSV1 SAVING "         STORAGE" ON UNIT  53 AT TIME STEP 10, STRESS PERIOD   2
 UBDSV2 SAVING "   CONSTANT HEAD" ON UNIT  53 AT TIME STEP 10, STRESS PERIOD   2
 UBDSV1 SAVING "FLOW RIGHT FACE " ON UNIT  53 AT TIME STEP 10, STRESS PERIOD   2
 UBDSV1 SAVING "FLOW FRONT FACE " ON UNIT  53 AT TIME STEP 10, STRESS PERIOD   2
 UBDSV1 SAVING "FLOW LOWER FACE " ON UNIT  53 AT TIME STEP 10, STRESS PERIOD   2
1
              HEAD IN LAYER   1 AT END OF TIME STEP  10 IN STRESS PERIOD    2
  ---------------------------------------------------------------------------

            1           2           3           4           5           6           7           8           9          10
 ........................................................................................................................
   1    10.00       10.00      10.000       9.999       9.993       9.965       9.833       9.268       7.174      6.9670E-03
   2    10.00       10.00      10.000       9.999       9.993       9.965       9.833       9.268       7.174      6.9670E-03
   3    10.00       10.00      10.000       9.999       9.993       9.965       9.833       9.268       7.174      6.9670E-03
   4    10.00       10.00      10.000       9.999       9.993       9.965       9.833       9.268       7.174      6.9670E-03
   5    10.00       10.00      10.000       9.999       9.993       9.965       9.833       9.268       7.174      6.9670E-03
   6    10.00       10.00      10.000       9.999       9.993       9.965       9.833       9.268       7.174      6.9670E-03
   7    10.00       10.00      10.000       9.999       9.993       9.965       9.833       9.268       7.174      6.9670E-03
   8    10.00       10.00      10.000       9.999       9.993       9.965       9.833       9.268       7.174      6.9670E-03
   9    10.00       10.00      10.000       9.999       9.993       9.965       9.833       9.268       7.174      6.9670E-03
  10    10.00       10.00      10.000       9.999       9.993       9.965       9.833       9.268       7.174      6.9670E-03
1
              HEAD IN LAYER   2 AT END OF TIME STEP  10 IN STRESS PERIOD    2
  ---------------------------------------------------------------------------

            1           2           3           4           5           6           7           8           9          10
 ........................................................................................................................
   1    10.00      10.000      10.000       9.998       9.991       9.958       9.805       9.180       6.959      1.4685E-02
   2    10.00      10.000      10.000       9.998       9.991       9.958       9.805       9.180       6.959      1.4685E-02
   3    10.00      10.000      10.000       9.998       9.991       9.958       9.805       9.180       6.959      1.4685E-02
   4    10.00      10.000      10.000       9.998       9.991       9.958       9.805       9.180       6.959      1.4685E-02
   5    10.00      10.000      10.000       9.998       9.991       9.958       9.805       9.180       6.959      1.4685E-02
   6    10.00      10.000      10.000       9.998       9.991       9.958       9.805       9.180       6.959      1.4685E-02
   7    10.00      10.000      10.000       9.998       9.991       9.958       9.805       9.180       6.959      1.4685E-02
   8    10.00      10.000      10.000       9.998       9.991       9.958       9.805       9.180       6.959      1.4685E-02
   9    10.00      10.000      10.000       9.998       9.991       9.958       9.805       9.180       6.959      1.4685E-02
  10    10.00      10.000      10.000       9.998       9.991       9.958       9.805       9.180       6.959      1.4685E-02
1
              HEAD IN LAYER   3 AT END OF TIME STEP  10 IN STRESS PERIOD    2
  ---------------------------------------------------------------------------

            1           2           3           4           5           6           7           8           9          10
 ........................................................................................................................
   1    10.00      10.000      10.000       9.998       9.990       9.952       9.784       9.111       6.782      1.6009E-02
   2    10.00      10.000      10.000       9.998       9.990       9.952       9.784       9.111       6.782      1.6009E-02
   3    10.00      10.000      10.000       9.998       9.990       9.952       9.784       9.111       6.782      1.6009E-02
   4    10.00      10.000      10.000       9.998       9.990       9.952       9.784       9.111       6.782      1.6009E-02
   5    10.00      10.000      10.000       9.998       9.990       9.952       9.784       9.111       6.782      1.6009E-02
   6    10.00      10.000      10.000       9.998       9.990       9.952       9.784       9.111       6.782      1.6009E-02
   7    10.00      10.000      10.000       9.998       9.990       9.952       9.784       9.111       6.782      1.6009E-02
   8    10.00      10.000      10.000       9.998       9.990       9.952       9.784       9.111       6.782      1.6009E-02
   9    10.00      10.000      10.000       9.998       9.990       9.952       9.784       9.111       6.782      1.6009E-02
  10    10.00      10.000      10.000       9.998       9.990       9.952       9.784       9.111       6.782      1.6009E-02
1
              HEAD IN LAYER   4 AT END OF TIME STEP  10 IN STRESS PERIOD    2
  ---------------------------------------------------------------------------

            1           2           3           4           5           6           7           8           9          10
 ........................................................................................................................
   1    10.00      10.000      10.000       9.998       9.989       9.948       9.770       9.065       6.666      1.5952E-02
   2    10.00      10.000      10.000       9.998       9.989       9.948       9.770       9.065       6.666      1.5952E-02
   3    10.00      10.000      10.000       9.998       9.989       9.948       9.770       9.065       6.666      1.5952E-02
   4    10.00      10.000      10.000       9.998       9.989       9.948       9.770       9.065       6.666      1.5952E-02
   5    10.00      10.000      10.000       9.998       9.989       9.948       9.770       9.065       6.666      1.5952E-02
   6    10.00      10.000      10.000       9.998       9.989       9.948       9.770       9.065       6.666      1.5952E-02
   7    10.00      10.000      10.000       9.998       9.989       9.948       9.770       9.065       6.666      1.5952E-02
   8    10.00      10.000      10.000       9.998       9.989       9.948       9.770       9.065       6.666      1.5952E-02
   9    10.00      10.000      10.000       9.998       9.989       9.948       9.770       9.065       6.666      1.5952E-02
  10    10.00      10.000      10.000       9.998       9.989       9.948       9.770       9.065       6.666      1.5952E-02
1
              HEAD IN LAYER   5 AT END OF TIME STEP  10 IN STRESS PERIOD    2
  ---------------------------------------------------------------------------

            1           2           3           4           5           6           7           8           9          10
 ........................................................................................................................
   1    10.00      10.000      10.000       9.998       9.989       9.947       9.762       9.042       6.608      1.5841E-02
   2    10.00      10.000      10.000       9.998       9.989       9.947       9.762       9.042       6.608      1.5841E-02
   3    10.00      10.000      10.000       9.998       9.989       9.947       9.762       9.042       6.608      1.5841E-02
   4    10.00      10.000      10.000       9.998       9.989       9.947       9.762       9.042       6.608      1.5841E-02
   5    10.00      10.000      10.000       9.998       9.989       9.947       9.762       9.042       6.608      1.5841E-02
   6    10.00      10.000      10.000       9.998       9.989       9.947       9.762       9.042       6.608      1.5841E-02
   7    10.00      10.000      10.000       9.998       9.989       9.947       9.762       9.042       6.608      1.5841E-02
   8    10.00      10.000      10.000       9.998       9.989       9.947       9.762       9.042       6.608      1.5841E-02
   9    10.00      10.000      10.000       9.998       9.989       9.947       9.762       9.042       6.608      1.5841E-02
  10    10.00      10.000      10.000       9.998       9.989       9.947       9.762       9.042       6.608      1.5841E-02

 HEAD WILL BE SAVED ON UNIT   51 AT END OF TIME STEP   10, STRESS PERIOD    2

 DRAWDOWN WILL BE SAVED ON UNIT   52 AT END OF TIME STEP   10, STRESS PERIOD    2
1
  VOLUMETRIC BUDGET FOR ENTIRE MODEL AT END OF TIME STEP   10, STRESS PERIOD   2
  ------------------------------------------------------------------------------

     CUMULATIVE VOLUMES      L**3       RATES FOR THIS TIME STEP      L**3/T
     ------------------                 ------------------------

           IN:                                      IN:
           ---                                      ---
             STORAGE =      144542.0781               STORAGE =        3472.6489
       CONSTANT HEAD =           0.0000         CONSTANT HEAD =           0.0000
               WELLS =           0.0000                 WELLS =           0.0000
     HEAD DEP BOUNDS =           0.1030       HEAD DEP BOUNDS =       3.4893E-02

            TOTAL IN =      144542.1875              TOTAL IN =        3472.6838

          OUT:                                     OUT:
          ----                                     ----
             STORAGE =           0.0000               STORAGE =           0.0000
       CONSTANT HEAD =           0.0000         CONSTANT HEAD =           0.0000
               WELLS =           0.0000                 WELLS =           0.0000
     HEAD DEP BOUNDS =      144542.1875       HEAD DEP BOUNDS =        3472.6792

           TOTAL OUT =      144542.1875             TOTAL OUT =        3472.6792

            IN - OUT =           0.0000              IN - OUT =       4.6387E-03

 PERCENT DISCREPANCY =           0.00     PERCENT DISCREPANCY =           0.00






         TIME SUMMARY AT END OF TIME STEP   10 IN STRESS PERIOD    2
                    SECONDS     MINUTES      HOURS       DAYS        YEARS
                    -----------------------------------------------------------
   TIME STEP LENGTH  86400.      1440.0      24.000      1.0000     2.73785E-03
 STRESS PERIOD TIME 8.64000E+05  14400.      240.00      10.000     2.73785E-02
         TOTAL TIME 9.50400E+05  15840.      264.00      11.000     3.01164E-02
1
 
 SOLVING FOR HEAD 

 OUTPUT CONTROL FOR STRESS PERIOD    2   TIME STEP   11
    SAVE HEAD FOR ALL LAYERS
    SAVE DRAWDOWN FOR ALL LAYERS
    SAVE BUDGET
    PRINT HEAD FOR ALL LAYERS
    PRINT BUDGET
 UBDSV1 SAVING "         STORAGE" ON UNIT  53 AT TIME STEP 11, STRESS PERIOD   2
 UBDSV2 SAVING "   CONSTANT HEAD" ON UNIT  53 AT TIME STEP 11, STRESS PERIOD   2
 UBDSV1 SAVING "FLOW RIGHT FACE " ON UNIT  53 AT TIME STEP 11, STRESS PERIOD   2
 UBDSV1 SAVING "FLOW FRONT FACE " ON UNIT  53 AT TIME STEP 11, STRESS PERIOD   2
 UBDSV1 SAVING "FLOW LOWER FACE " ON UNIT  53 AT TIME STEP 11, STRESS PERIOD   2
1
              HEAD IN LAYER   1 AT END OF TIME STEP  11 IN STRESS PERIOD    2
  ---------------------------------------------------------------------------

            1           2           3           4           5           6           7           8           9          10
 ........................................................................................................................
   1    10.00      10.000      10.000       9.998       9.991       9.957       9.803       9.177       6.981      6.7682E-03
   2    10.00      10.000      10.000       9.998       9.991       9.957       9.803       9.177       6.981      6.7682E-03
   3    10.00      10.000      10.000       9.998       9.991       9.957       9.803       9.177       6.981      6.7682E-03
   4    10.00      10.000      10.000       9.998       9.991       9.957       9.803       9.177       6.981      6.7682E-03
   5    10.00      10.000      10.000       9.998       9.991       9.957       9.803       9.177       6.981      6.7682E-03
   6    10.00      10.000      10.000       9.998       9.991       9.957       9.803       9.177       6.981      6.7682E-03
   7    10.00      10.000      10.000       9.998       9.991       9.957       9.803       9.177       6.981      6.7682E-03
   8    10.00      10.000      10.000       9.998       9.991       9.957       9.803       9.177       6.981      6.7682E-03
   9    10.00      10.000      10.000       9.998       9.991       9.957       9.803       9.177       6.981      6.7682E-03
  10    10.00      10.000      10.000       9.998       9.991       9.957       9.803       9.177       6.981      6.7682E-03
1
              HEAD IN LAYER   2 AT END OF TIME STEP  11 IN STRESS PERIOD    2
  ---------------------------------------------------------------------------

            1           2           3           4           5           6           7           8           9          10
 ........................................................................................................................
   1    10.00      10.000      10.000       9.998       9.989       9.949       9.773       9.089       6.781      1.4305E-02
   2    10.00      10.000      10.000       9.998       9.989       9.949       9.773       9.089       6.781      1.4305E-02
   3    10.00      10.000      10.000       9.998       9.989       9.949       9.773       9.089       6.781      1.4305E-02
   4    10.00      10.000      10.000       9.998       9.989       9.949       9.773       9.089       6.781      1.4305E-02
   5    10.00      10.000      10.000       9.998       9.989       9.949       9.773       9.089       6.781      1.4305E-02
   6    10.00      10.000      10.000       9.998       9.989       9.949       9.773       9.089       6.781      1.4305E-02
   7    10.00      10.000      10.000       9.998       9.989       9.949       9.773       9.089       6.781      1.4305E-02
   8    10.00      10.000      10.000       9.998       9.989       9.949       9.773       9.089       6.781      1.4305E-02
   9    10.00      10.000      10.000       9.998       9.989       9.949       9.773       9.089       6.781      1.4305E-02
  10    10.00      10.000      10.000       9.998       9.989       9.949       9.773       9.089       6.781      1.4305E-02
1
              HEAD IN LAYER   3 AT END OF TIME STEP  11 IN STRESS PERIOD    2
  ---------------------------------------------------------------------------

            1           2           3           4           5           6           7           8           9          10
 ........................................................................................................................
   1    10.00      10.000      10.000       9.998       9.988       9.943       9.751       9.019       6.613      1.5609E-02
   2    10.00      10.000      10.000       9.998       9.988       9.943       9.751       9.019       6.613      1.5609E-02
   3    10.00      10.000      10.000       9.998       9.988       9.943       9.751       9.019       6.613      1.5609E-02
   4    10.00      10.000      10.000       9.998       9.988       9.943       9.751       9.019       6.613      1.5609E-02
   5    10.00      10.000      10.000       9.998       9.988       9.943       9.751       9.019       6.613      1.5609E-02
   6    10.00      10.000      10.000       9.998       9.988       9.943       9.751       9.019       6.613      1.5609E-02
   7    10.00      10.000      10.000       9.998       9.988       9.943       9.751       9.019       6.613      1.5609E-02
   8    10.00      10.000      10.000       9.998       9.988       9.943       9.751       9.019       6.613      1.5609E-02
   9    10.00      10.000      10.000       9.998       9.988       9.943       9.751       9.019       6.613      1.5609E-02
  10    10.00      10.000      10.000       9.998       9.988       9.943       9.751       9.019       6.613      1.5609E-02
1
              HEAD IN LAYER   4 AT END OF TIME STEP  11 IN STRESS PERIOD    2
  ---------------------------------------------------------------------------

            1           2           3           4           5           6           7           8           9          10
 ........................................................................................................................
   1    10.00      10.000       9.999       9.997       9.987       9.938       9.736       8.972       6.503      1.5562E-02
   2    10.00      10.000       9.999       9.997       9.987       9.938       9.736       8.972       6.503      1.5562E-02
   3    10.00      10.000       9.999       9.997       9.987       9.938       9.736       8.972       6.503      1.5562E-02
   4    10.00      10.000       9.999       9.997       9.987       9.938       9.736       8.972       6.503      1.5562E-02
   5    10.00      10.000       9.999       9.997       9.987       9.938       9.736       8.972       6.503      1.5562E-02
   6    10.00      10.000       9.999       9.997       9.987       9.938       9.736       8.972       6.503      1.5562E-02
   7    10.00      10.000       9.999       9.997       9.987       9.938       9.736       8.972       6.503      1.5562E-02
   8    10.00      10.000       9.999       9.997       9.987       9.938       9.736       8.972       6.503      1.5562E-02
   9    10.00      10.000       9.999       9.997       9.987       9.938       9.736       8.972       6.503      1.5562E-02
  10    10.00      10.000       9.999       9.997       9.987       9.938       9.736       8.972       6.503      1.5562E-02
1
              HEAD IN LAYER   5 AT END OF TIME STEP  11 IN STRESS PERIOD    2
  ---------------------------------------------------------------------------

            1           2           3           4           5           6           7           8           9          10
 ........................................................................................................................
   1    10.00      10.000       9.999       9.997       9.986       9.936       9.728       8.949       6.449      1.5458E-02
   2    10.00      10.000       9.999       9.997       9.986       9.936       9.728       8.949       6.449      1.5458E-02
   3    10.00      10.000       9.999       9.997       9.986       9.936       9.728       8.949       6.449      1.5458E-02
   4    10.00      10.000       9.999       9.997       9.986       9.936       9.728       8.949       6.449      1.5458E-02
   5    10.00      10.000       9.999       9.997       9.986       9.936       9.728       8.949       6.449      1.5458E-02
   6    10.00      10.000       9.999       9.997       9.986       9.936       9.728       8.949       6.449      1.5458E-02
   7    10.00      10.000       9.999       9.997       9.986       9.936       9.728       8.949       6.449      1.5458E-02
   8    10.00      10.000       9.999       9.997       9.986       9.936       9.728       8.949       6.449      1.5458E-02
   9    10.00      10.000       9.999       9.997       9.986       9.936       9.728       8.949       6.449      1.5458E-02
  10    10.00      10.000       9.999       9.997       9.986       9.936       9.728       8.949       6.449      1.5458E-02

 HEAD WILL BE SAVED ON UNIT   51 AT END OF TIME STEP   11, STRESS PERIOD    2

 DRAWDOWN WILL BE SAVED ON UNIT   52 AT END OF TIME STEP   11, STRESS PERIOD    2
1
  VOLUMETRIC BUDGET FOR ENTIRE MODEL AT END OF TIME STEP   11, STRESS PERIOD   2
  ------------------------------------------------------------------------------

     CUMULATIVE VOLUMES      L**3       RATES FOR THIS TIME STEP      L**3/T
     ------------------                 ------------------------

           IN:                                      IN:
           ---                                      ---
             STORAGE =      147927.1875               STORAGE =        3385.1118
       CONSTANT HEAD =           0.0000         CONSTANT HEAD =           0.0000
               WELLS =           0.0000                 WELLS =           0.0000
     HEAD DEP BOUNDS =           0.1511       HEAD DEP BOUNDS =       4.8129E-02

            TOTAL IN =      147927.3438              TOTAL IN =        3385.1599

          OUT:                                     OUT:
          ----                                     ----
             STORAGE =           0.0000               STORAGE =           0.0000
       CONSTANT HEAD =           0.0000         CONSTANT HEAD =           0.0000
               WELLS =           0.0000                 WELLS =           0.0000
     HEAD DEP BOUNDS =      147927.3438       HEAD DEP BOUNDS =        3385.1616

           TOTAL OUT =      147927.3438             TOTAL OUT =        3385.1616

            IN - OUT =           0.0000              IN - OUT =      -1.7090E-03

 PERCENT DISCREPANCY =           0.00     PERCENT DISCREPANCY =          -0.00






         TIME SUMMARY AT END OF TIME STEP   11 IN STRESS PERIOD    2
                    SECONDS     MINUTES      HOURS       DAYS        YEARS
                    -----------------------------------------------------------
   TIME STEP LENGTH  86400.      1440.0      24.000      1.0000     2.73785E-03
 STRESS PERIOD TIME 9.50400E+05  15840.      264.00      11.000     3.01164E-02
         TOTAL TIME 1.03680E+06  17280.      288.00      12.000     3.28542E-02
1
 
 SOLVING FOR HEAD 

 OUTPUT CONTROL FOR STRESS PERIOD    2   TIME STEP   12
    SAVE HEAD FOR ALL LAYERS
    SAVE DRAWDOWN FOR ALL LAYERS
    SAVE BUDGET
    PRINT HEAD FOR ALL LAYERS
    PRINT BUDGET
 UBDSV1 SAVING "         STORAGE" ON UNIT  53 AT TIME STEP 12, STRESS PERIOD   2
 UBDSV2 SAVING "   CONSTANT HEAD" ON UNIT  53 AT TIME STEP 12, STRESS PERIOD   2
 UBDSV1 SAVING "FLOW RIGHT FACE " ON UNIT  53 AT TIME STEP 12, STRESS PERIOD   2
 UBDSV1 SAVING "FLOW FRONT FACE " ON UNIT  53 AT TIME STEP 12, STRESS PERIOD   2
 UBDSV1 SAVING "FLOW LOWER FACE " ON UNIT  53 AT TIME STEP 12, STRESS PERIOD   2
1
              HEAD IN LAYER   1 AT END OF TIME STEP  12 IN STRESS PERIOD    2
  ---------------------------------------------------------------------------

            1           2           3           4           5           6           7           8           9          10
 ........................................................................................................................
   1    10.00      10.000      10.000       9.998       9.989       9.948       9.771       9.086       6.801      6.5817E-03
   2    10.00      10.000      10.000       9.998       9.989       9.948       9.771       9.086       6.801      6.5817E-03
   3    10.00      10.000      10.000       9.998       9.989       9.948       9.771       9.086       6.801      6.5817E-03
   4    10.00      10.000      10.000       9.998       9.989       9.948       9.771       9.086       6.801      6.5817E-03
   5    10.00      10.000      10.000       9.998       9.989       9.948       9.771       9.086       6.801      6.5817E-03
   6    10.00      10.000      10.000       9.998       9.989       9.948       9.771       9.086       6.801      6.5817E-03
   7    10.00      10.000      10.000       9.998       9.989       9.948       9.771       9.086       6.801      6.5817E-03
   8    10.00      10.000      10.000       9.998       9.989       9.948       9.771       9.086       6.801      6.5817E-03
   9    10.00      10.000      10.000       9.998       9.989       9.948       9.771       9.086       6.801      6.5817E-03
  10    10.00      10.000      10.000       9.998       9.989       9.948       9.771       9.086       6.801      6.5817E-03
1
              HEAD IN LAYER   2 AT END OF TIME STEP  12 IN STRESS PERIOD    2
  ---------------------------------------------------------------------------

            1           2           3           4           5           6           7           8           9          10
 ........................................................................................................................
   1    10.00      10.000       9.999       9.997       9.987       9.939       9.740       8.997       6.613      1.3948E-02
   2    10.00      10.000       9.999       9.997       9.987       9.939       9.740       8.997       6.613      1.3948E-02
   3    10.00      10.000       9.999       9.997       9.987       9.939       9.740       8.997       6.613      1.3948E-02
   4    10.00      10.000       9.999       9.997       9.987       9.939       9.740       8.997       6.613      1.3948E-02
   5    10.00      10.000       9.999       9.997       9.987       9.939       9.740       8.997       6.613      1.3948E-02
   6    10.00      10.000       9.999       9.997       9.987       9.939       9.740       8.997       6.613      1.3948E-02
   7    10.00      10.000       9.999       9.997       9.987       9.939       9.740       8.997       6.613      1.3948E-02
   8    10.00      10.000       9.999       9.997       9.987       9.939       9.740       8.997       6.613      1.3948E-02
   9    10.00      10.000       9.999       9.997       9.987       9.939       9.740       8.997       6.613      1.3948E-02
  10    10.00      10.000       9.999       9.997       9.987       9.939       9.740       8.997       6.613      1.3948E-02
1
              HEAD IN LAYER   3 AT END OF TIME STEP  12 IN STRESS PERIOD    2
  ---------------------------------------------------------------------------

            1           2           3           4           5           6           7           8           9          10
 ........................................................................................................................
   1    10.00      10.000       9.999       9.997       9.985       9.932       9.716       8.927       6.454      1.5233E-02
   2    10.00      10.000       9.999       9.997       9.985       9.932       9.716       8.927       6.454      1.5233E-02
   3    10.00      10.000       9.999       9.997       9.985       9.932       9.716       8.927       6.454      1.5233E-02
   4    10.00      10.000       9.999       9.997       9.985       9.932       9.716       8.927       6.454      1.5233E-02
   5    10.00      10.000       9.999       9.997       9.985       9.932       9.716       8.927       6.454      1.5233E-02
   6    10.00      10.000       9.999       9.997       9.985       9.932       9.716       8.927       6.454      1.5233E-02
   7    10.00      10.000       9.999       9.997       9.985       9.932       9.716       8.927       6.454      1.5233E-02
   8    10.00      10.000       9.999       9.997       9.985       9.932       9.716       8.927       6.454      1.5233E-02
   9    10.00      10.000       9.999       9.997       9.985       9.932       9.716       8.927       6.454      1.5233E-02
  10    10.00      10.000       9.999       9.997       9.985       9.932       9.716       8.927       6.454      1.5233E-02
1
              HEAD IN LAYER   4 AT END OF TIME STEP  12 IN STRESS PERIOD    2
  ---------------------------------------------------------------------------

            1           2           3           4           5           6           7           8           9          10
 ........................................................................................................................
   1    10.00      10.000       9.999       9.997       9.984       9.927       9.700       8.881       6.350      1.5194E-02
   2    10.00      10.000       9.999       9.997       9.984       9.927       9.700       8.881       6.350      1.5194E-02
   3    10.00      10.000       9.999       9.997       9.984       9.927       9.700       8.881       6.350      1.5194E-02
   4    10.00      10.000       9.999       9.997       9.984       9.927       9.700       8.881       6.350      1.5194E-02
   5    10.00      10.000       9.999       9.997       9.984       9.927       9.700       8.881       6.350      1.5194E-02
   6    10.00      10.000       9.999       9.997       9.984       9.927       9.700       8.881       6.350      1.5194E-02
   7    10.00      10.000       9.999       9.997       9.984       9.927       9.700       8.881       6.350      1.5194E-02
   8    10.00      10.000       9.999       9.997       9.984       9.927       9.700       8.881       6.350      1.5194E-02
   9    10.00      10.000       9.999       9.997       9.984       9.927       9.700       8.881       6.350      1.5194E-02
  10    10.00      10.000       9.999       9.997       9.984       9.927       9.700       8.881       6.350      1.5194E-02
1
              HEAD IN LAYER   5 AT END OF TIME STEP  12 IN STRESS PERIOD    2
  ---------------------------------------------------------------------------

            1           2           3           4           5           6           7           8           9          10
 ........................................................................................................................
   1    10.00      10.000       9.999       9.996       9.983       9.925       9.692       8.857       6.298      1.5097E-02
   2    10.00      10.000       9.999       9.996       9.983       9.925       9.692       8.857       6.298      1.5097E-02
   3    10.00      10.000       9.999       9.996       9.983       9.925       9.692       8.857       6.298      1.5097E-02
   4    10.00      10.000       9.999       9.996       9.983       9.925       9.692       8.857       6.298      1.5097E-02
   5    10.00      10.000       9.999       9.996       9.983       9.925       9.692       8.857       6.298      1.5097E-02
   6    10.00      10.000       9.999       9.996       9.983       9.925       9.692       8.857       6.298      1.5097E-02
   7    10.00      10.000       9.999       9.996       9.983       9.925       9.692       8.857       6.298      1.5097E-02
   8    10.00      10.000       9.999       9.996       9.983       9.925       9.692       8.857       6.298      1.5097E-02
   9    10.00      10.000       9.999       9.996       9.983       9.925       9.692       8.857       6.298      1.5097E-02
  10    10.00      10.000       9.999       9.996       9.983       9.925       9.692       8.857       6.298      1.5097E-02

 HEAD WILL BE SAVED ON UNIT   51 AT END OF TIME STEP   12, STRESS PERIOD    2

 DRAWDOWN WILL BE SAVED ON UNIT   52 AT END OF TIME STEP   12, STRESS PERIOD    2
1
  VOLUMETRIC BUDGET FOR ENTIRE MODEL AT END OF TIME STEP   12, STRESS PERIOD   2
  ------------------------------------------------------------------------------

     CUMULATIVE VOLUMES      L**3       RATES FOR THIS TIME STEP      L**3/T
     ------------------                 ------------------------

           IN:                                      IN:
           ---                                      ---
             STORAGE =      151229.7812               STORAGE =        3302.5959
       CONSTANT HEAD =           0.0000         CONSTANT HEAD =           0.0000
               WELLS =           0.0000                 WELLS =           0.0000
     HEAD DEP BOUNDS =           0.2162       HEAD DEP BOUNDS =       6.5034E-02

            TOTAL IN =      151230.0000              TOTAL IN =        3302.6609

          OUT:                                     OUT:
          ----                                     ----
             STORAGE =           0.0000               STORAGE =           0.0000
       CONSTANT HEAD =           0.0000         CONSTANT HEAD =           0.0000
               WELLS =           0.0000                 WELLS =           0.0000
     HEAD DEP BOUNDS =      151229.9844       HEAD DEP BOUNDS =        3302.6443

           TOTAL OUT =      151229.9844             TOTAL OUT =        3302.6443

            IN - OUT =       1.5625E-02              IN - OUT =       1.6602E-02

 PERCENT DISCREPANCY =           0.00     PERCENT DISCREPANCY =           0.00






         TIME SUMMARY AT END OF TIME STEP   12 IN STRESS PERIOD    2
                    SECONDS     MINUTES      HOURS       DAYS        YEARS
                    -----------------------------------------------------------
   TIME STEP LENGTH  86400.      1440.0      24.000      1.0000     2.73785E-03
 STRESS PERIOD TIME 1.03680E+06  17280.      288.00      12.000     3.28542E-02
         TOTAL TIME 1.12320E+06  18720.      312.00      13.000     3.55921E-02
1
 
 SOLVING FOR HEAD 

 OUTPUT CONTROL FOR STRESS PERIOD    2   TIME STEP   13
    SAVE HEAD FOR ALL LAYERS
    SAVE DRAWDOWN FOR ALL LAYERS
    SAVE BUDGET
    PRINT HEAD FOR ALL LAYERS
    PRINT BUDGET
 UBDSV1 SAVING "         STORAGE" ON UNIT  53 AT TIME STEP 13, STRESS PERIOD   2
 UBDSV2 SAVING "   CONSTANT HEAD" ON UNIT  53 AT TIME STEP 13, STRESS PERIOD   2
 UBDSV1 SAVING "FLOW RIGHT FACE " ON UNIT  53 AT TIME STEP 13, STRESS PERIOD   2
 UBDSV1 SAVING "FLOW FRONT FACE " ON UNIT  53 AT TIME STEP 13, STRESS PERIOD   2
 UBDSV1 SAVING "FLOW LOWER FACE " ON UNIT  53 AT TIME STEP 13, STRESS PERIOD   2
1
              HEAD IN LAYER   1 AT END OF TIME STEP  13 IN STRESS PERIOD    2
  ---------------------------------------------------------------------------

            1           2           3           4           5           6           7           8           9          10
 ........................................................................................................................
   1    10.00      10.000       9.999       9.997       9.986       9.938       9.737       8.994       6.631      6.4061E-03
   2    10.00      10.000       9.999       9.997       9.986       9.938       9.737       8.994       6.631      6.4061E-03
   3    10.00      10.000       9.999       9.997       9.986       9.938       9.737       8.994       6.631      6.4061E-03
   4    10.00      10.000       9.999       9.997       9.986       9.938       9.737       8.994       6.631      6.4061E-03
   5    10.00      10.000       9.999       9.997       9.986       9.938       9.737       8.994       6.631      6.4061E-03
   6    10.00      10.000       9.999       9.997       9.986       9.938       9.737       8.994       6.631      6.4061E-03
   7    10.00      10.000       9.999       9.997       9.986       9.938       9.737       8.994       6.631      6.4061E-03
   8    10.00      10.000       9.999       9.997       9.986       9.938       9.737       8.994       6.631      6.4061E-03
   9    10.00      10.000       9.999       9.997       9.986       9.938       9.737       8.994       6.631      6.4061E-03
  10    10.00      10.000       9.999       9.997       9.986       9.938       9.737       8.994       6.631      6.4061E-03
1
              HEAD IN LAYER   2 AT END OF TIME STEP  13 IN STRESS PERIOD    2
  ---------------------------------------------------------------------------

            1           2           3           4           5           6           7           8           9          10
 ........................................................................................................................
   1    10.00      10.000       9.999       9.997       9.984       9.928       9.705       8.906       6.454      1.3611E-02
   2    10.00      10.000       9.999       9.997       9.984       9.928       9.705       8.906       6.454      1.3611E-02
   3    10.00      10.000       9.999       9.997       9.984       9.928       9.705       8.906       6.454      1.3611E-02
   4    10.00      10.000       9.999       9.997       9.984       9.928       9.705       8.906       6.454      1.3611E-02
   5    10.00      10.000       9.999       9.997       9.984       9.928       9.705       8.906       6.454      1.3611E-02
   6    10.00      10.000       9.999       9.997       9.984       9.928       9.705       8.906       6.454      1.3611E-02
   7    10.00      10.000       9.999       9.997       9.984       9.928       9.705       8.906       6.454      1.3611E-02
   8    10.00      10.000       9.999       9.997       9.984       9.928       9.705       8.906       6.454      1.3611E-02
   9    10.00      10.000       9.999       9.997       9.984       9.928       9.705       8.906       6.454      1.3611E-02
  10    10.00      10.000       9.999       9.997       9.984       9.928       9.705       8.906       6.454      1.3611E-02
1
              HEAD IN LAYER   3 AT END OF TIME STEP  13 IN STRESS PERIOD    2
  ---------------------------------------------------------------------------

            1           2           3           4           5           6           7           8           9          10
 ........................................................................................................................
   1    10.00      10.000       9.999       9.996       9.982       9.921       9.680       8.836       6.303      1.4877E-02
   2    10.00      10.000       9.999       9.996       9.982       9.921       9.680       8.836       6.303      1.4877E-02
   3    10.00      10.000       9.999       9.996       9.982       9.921       9.680       8.836       6.303      1.4877E-02
   4    10.00      10.000       9.999       9.996       9.982       9.921       9.680       8.836       6.303      1.4877E-02
   5    10.00      10.000       9.999       9.996       9.982       9.921       9.680       8.836       6.303      1.4877E-02
   6    10.00      10.000       9.999       9.996       9.982       9.921       9.680       8.836       6.303      1.4877E-02
   7    10.00      10.000       9.999       9.996       9.982       9.921       9.680       8.836       6.303      1.4877E-02
   8    10.00      10.000       9.999       9.996       9.982       9.921       9.680       8.836       6.303      1.4877E-02
   9    10.00      10.000       9.999       9.996       9.982       9.921       9.680       8.836       6.303      1.4877E-02
  10    10.00      10.000       9.999       9.996       9.982       9.921       9.680       8.836       6.303      1.4877E-02
1
              HEAD IN LAYER   4 AT END OF TIME STEP  13 IN STRESS PERIOD    2
  ---------------------------------------------------------------------------

            1           2           3           4           5           6           7           8           9          10
 ........................................................................................................................
   1    10.00      10.000       9.999       9.996       9.980       9.915       9.663       8.789       6.205      1.4846E-02
   2    10.00      10.000       9.999       9.996       9.980       9.915       9.663       8.789       6.205      1.4846E-02
   3    10.00      10.000       9.999       9.996       9.980       9.915       9.663       8.789       6.205      1.4846E-02
   4    10.00      10.000       9.999       9.996       9.980       9.915       9.663       8.789       6.205      1.4846E-02
   5    10.00      10.000       9.999       9.996       9.980       9.915       9.663       8.789       6.205      1.4846E-02
   6    10.00      10.000       9.999       9.996       9.980       9.915       9.663       8.789       6.205      1.4846E-02
   7    10.00      10.000       9.999       9.996       9.980       9.915       9.663       8.789       6.205      1.4846E-02
   8    10.00      10.000       9.999       9.996       9.980       9.915       9.663       8.789       6.205      1.4846E-02
   9    10.00      10.000       9.999       9.996       9.980       9.915       9.663       8.789       6.205      1.4846E-02
  10    10.00      10.000       9.999       9.996       9.980       9.915       9.663       8.789       6.205      1.4846E-02
1
              HEAD IN LAYER   5 AT END OF TIME STEP  13 IN STRESS PERIOD    2
  ---------------------------------------------------------------------------

            1           2           3           4           5           6           7           8           9          10
 ........................................................................................................................
   1    10.00      10.000       9.999       9.996       9.980       9.913       9.654       8.766       6.156      1.4755E-02
   2    10.00      10.000       9.999       9.996       9.980       9.913       9.654       8.766       6.156      1.4755E-02
   3    10.00      10.000       9.999       9.996       9.980       9.913       9.654       8.766       6.156      1.4755E-02
   4    10.00      10.000       9.999       9.996       9.980       9.913       9.654       8.766       6.156      1.4755E-02
   5    10.00      10.000       9.999       9.996       9.980       9.913       9.654       8.766       6.156      1.4755E-02
   6    10.00      10.000       9.999       9.996       9.980       9.913       9.654       8.766       6.156      1.4755E-02
   7    10.00      10.000       9.999       9.996       9.980       9.913       9.654       8.766       6.156      1.4755E-02
   8    10.00      10.000       9.999       9.996       9.980       9.913       9.654       8.766       6.156      1.4755E-02
   9    10.00      10.000       9.999       9.996       9.980       9.913       9.654       8.766       6.156      1.4755E-02
  10    10.00      10.000       9.999       9.996       9.980       9.913       9.654       8.766       6.156      1.4755E-02

 HEAD WILL BE SAVED ON UNIT   51 AT END OF TIME STEP   13, STRESS PERIOD    2

 DRAWDOWN WILL BE SAVED ON UNIT   52 AT END OF TIME STEP   13, STRESS PERIOD    2
1
  VOLUMETRIC BUDGET FOR ENTIRE MODEL AT END OF TIME STEP   13, STRESS PERIOD   2
  ------------------------------------------------------------------------------

     CUMULATIVE VOLUMES      L**3       RATES FOR THIS TIME STEP      L**3/T
     ------------------                 ------------------------

           IN:                                      IN:
           ---                                      ---
             STORAGE =      154454.4062               STORAGE =        3224.6245
       CONSTANT HEAD =           0.0000         CONSTANT HEAD =           0.0000
               WELLS =           0.0000                 WELLS =           0.0000
     HEAD DEP BOUNDS =           0.3021       HEAD DEP BOUNDS =       8.5960E-02

            TOTAL IN =      154454.7031              TOTAL IN =        3224.7104

          OUT:                                     OUT:
          ----                                     ----
             STORAGE =           0.0000               STORAGE =           0.0000
       CONSTANT HEAD =           0.0000         CONSTANT HEAD =           0.0000
               WELLS =           0.0000                 WELLS =           0.0000
     HEAD DEP BOUNDS =      154454.7031       HEAD DEP BOUNDS =        3224.7205

           TOTAL OUT =      154454.7031             TOTAL OUT =        3224.7205

            IN - OUT =           0.0000              IN - OUT =      -1.0010E-02

 PERCENT DISCREPANCY =           0.00     PERCENT DISCREPANCY =          -0.00






         TIME SUMMARY AT END OF TIME STEP   13 IN STRESS PERIOD    2
                    SECONDS     MINUTES      HOURS       DAYS        YEARS
                    -----------------------------------------------------------
   TIME STEP LENGTH  86400.      1440.0      24.000      1.0000     2.73785E-03
 STRESS PERIOD TIME 1.12320E+06  18720.      312.00      13.000     3.55921E-02
         TOTAL TIME 1.20960E+06  20160.      336.00      14.000     3.83299E-02
1
 
 SOLVING FOR HEAD 

 OUTPUT CONTROL FOR STRESS PERIOD    2   TIME STEP   14
    SAVE HEAD FOR ALL LAYERS
    SAVE DRAWDOWN FOR ALL LAYERS
    SAVE BUDGET
    PRINT HEAD FOR ALL LAYERS
    PRINT BUDGET
 UBDSV1 SAVING "         STORAGE" ON UNIT  53 AT TIME STEP 14, STRESS PERIOD   2
 UBDSV2 SAVING "   CONSTANT HEAD" ON UNIT  53 AT TIME STEP 14, STRESS PERIOD   2
 UBDSV1 SAVING "FLOW RIGHT FACE " ON UNIT  53 AT TIME STEP 14, STRESS PERIOD   2
 UBDSV1 SAVING "FLOW FRONT FACE " ON UNIT  53 AT TIME STEP 14, STRESS PERIOD   2
 UBDSV1 SAVING "FLOW LOWER FACE " ON UNIT  53 AT TIME STEP 14, STRESS PERIOD   2
1
              HEAD IN LAYER   1 AT END OF TIME STEP  14 IN STRESS PERIOD    2
  ---------------------------------------------------------------------------

            1           2           3           4           5           6           7           8           9          10
 ........................................................................................................................
   1    10.00      10.000       9.999       9.996       9.983       9.927       9.702       8.903       6.470      6.2408E-03
   2    10.00      10.000       9.999       9.996       9.983       9.927       9.702       8.903       6.470      6.2408E-03
   3    10.00      10.000       9.999       9.996       9.983       9.927       9.702       8.903       6.470      6.2408E-03
   4    10.00      10.000       9.999       9.996       9.983       9.927       9.702       8.903       6.470      6.2408E-03
   5    10.00      10.000       9.999       9.996       9.983       9.927       9.702       8.903       6.470      6.2408E-03
   6    10.00      10.000       9.999       9.996       9.983       9.927       9.702       8.903       6.470      6.2408E-03
   7    10.00      10.000       9.999       9.996       9.983       9.927       9.702       8.903       6.470      6.2408E-03
   8    10.00      10.000       9.999       9.996       9.983       9.927       9.702       8.903       6.470      6.2408E-03
   9    10.00      10.000       9.999       9.996       9.983       9.927       9.702       8.903       6.470      6.2408E-03
  10    10.00      10.000       9.999       9.996       9.983       9.927       9.702       8.903       6.470      6.2408E-03
1
              HEAD IN LAYER   2 AT END OF TIME STEP  14 IN STRESS PERIOD    2
  ---------------------------------------------------------------------------

            1           2           3           4           5           6           7           8           9          10
 ........................................................................................................................
   1    10.00      10.000       9.999       9.996       9.980       9.916       9.668       8.815       6.304      1.3292E-02
   2    10.00      10.000       9.999       9.996       9.980       9.916       9.668       8.815       6.304      1.3292E-02
   3    10.00      10.000       9.999       9.996       9.980       9.916       9.668       8.815       6.304      1.3292E-02
   4    10.00      10.000       9.999       9.996       9.980       9.916       9.668       8.815       6.304      1.3292E-02
   5    10.00      10.000       9.999       9.996       9.980       9.916       9.668       8.815       6.304      1.3292E-02
   6    10.00      10.000       9.999       9.996       9.980       9.916       9.668       8.815       6.304      1.3292E-02
   7    10.00      10.000       9.999       9.996       9.980       9.916       9.668       8.815       6.304      1.3292E-02
   8    10.00      10.000       9.999       9.996       9.980       9.916       9.668       8.815       6.304      1.3292E-02
   9    10.00      10.000       9.999       9.996       9.980       9.916       9.668       8.815       6.304      1.3292E-02
  10    10.00      10.000       9.999       9.996       9.980       9.916       9.668       8.815       6.304      1.3292E-02
1
              HEAD IN LAYER   3 AT END OF TIME STEP  14 IN STRESS PERIOD    2
  ---------------------------------------------------------------------------

            1           2           3           4           5           6           7           8           9          10
 ........................................................................................................................
   1    10.00      10.000       9.999       9.995       9.978       9.908       9.642       8.746       6.161      1.4540E-02
   2    10.00      10.000       9.999       9.995       9.978       9.908       9.642       8.746       6.161      1.4540E-02
   3    10.00      10.000       9.999       9.995       9.978       9.908       9.642       8.746       6.161      1.4540E-02
   4    10.00      10.000       9.999       9.995       9.978       9.908       9.642       8.746       6.161      1.4540E-02
   5    10.00      10.000       9.999       9.995       9.978       9.908       9.642       8.746       6.161      1.4540E-02
   6    10.00      10.000       9.999       9.995       9.978       9.908       9.642       8.746       6.161      1.4540E-02
   7    10.00      10.000       9.999       9.995       9.978       9.908       9.642       8.746       6.161      1.4540E-02
   8    10.00      10.000       9.999       9.995       9.978       9.908       9.642       8.746       6.161      1.4540E-02
   9    10.00      10.000       9.999       9.995       9.978       9.908       9.642       8.746       6.161      1.4540E-02
  10    10.00      10.000       9.999       9.995       9.978       9.908       9.642       8.746       6.161      1.4540E-02
1
              HEAD IN LAYER   4 AT END OF TIME STEP  14 IN STRESS PERIOD    2
  ---------------------------------------------------------------------------

            1           2           3           4           5           6           7           8           9          10
 ........................................................................................................................
   1    10.00      10.000       9.999       9.995       9.977       9.903       9.625       8.699       6.067      1.4517E-02
   2    10.00      10.000       9.999       9.995       9.977       9.903       9.625       8.699       6.067      1.4517E-02
   3    10.00      10.000       9.999       9.995       9.977       9.903       9.625       8.699       6.067      1.4517E-02
   4    10.00      10.000       9.999       9.995       9.977       9.903       9.625       8.699       6.067      1.4517E-02
   5    10.00      10.000       9.999       9.995       9.977       9.903       9.625       8.699       6.067      1.4517E-02
   6    10.00      10.000       9.999       9.995       9.977       9.903       9.625       8.699       6.067      1.4517E-02
   7    10.00      10.000       9.999       9.995       9.977       9.903       9.625       8.699       6.067      1.4517E-02
   8    10.00      10.000       9.999       9.995       9.977       9.903       9.625       8.699       6.067      1.4517E-02
   9    10.00      10.000       9.999       9.995       9.977       9.903       9.625       8.699       6.067      1.4517E-02
  10    10.00      10.000       9.999       9.995       9.977       9.903       9.625       8.699       6.067      1.4517E-02
1
              HEAD IN LAYER   5 AT END OF TIME STEP  14 IN STRESS PERIOD    2
  ---------------------------------------------------------------------------

            1           2           3           4           5           6           7           8           9          10
 ........................................................................................................................
   1    10.00      10.000       9.999       9.995       9.976       9.900       9.616       8.676       6.021      1.4431E-02
   2    10.00      10.000       9.999       9.995       9.976       9.900       9.616       8.676       6.021      1.4431E-02
   3    10.00      10.000       9.999       9.995       9.976       9.900       9.616       8.676       6.021      1.4431E-02
   4    10.00      10.000       9.999       9.995       9.976       9.900       9.616       8.676       6.021      1.4431E-02
   5    10.00      10.000       9.999       9.995       9.976       9.900       9.616       8.676       6.021      1.4431E-02
   6    10.00      10.000       9.999       9.995       9.976       9.900       9.616       8.676       6.021      1.4431E-02
   7    10.00      10.000       9.999       9.995       9.976       9.900       9.616       8.676       6.021      1.4431E-02
   8    10.00      10.000       9.999       9.995       9.976       9.900       9.616       8.676       6.021      1.4431E-02
   9    10.00      10.000       9.999       9.995       9.976       9.900       9.616       8.676       6.021      1.4431E-02
  10    10.00      10.000       9.999       9.995       9.976       9.900       9.616       8.676       6.021      1.4431E-02

 HEAD WILL BE SAVED ON UNIT   51 AT END OF TIME STEP   14, STRESS PERIOD    2

 DRAWDOWN WILL BE SAVED ON UNIT   52 AT END OF TIME STEP   14, STRESS PERIOD    2
1
  VOLUMETRIC BUDGET FOR ENTIRE MODEL AT END OF TIME STEP   14, STRESS PERIOD   2
  ------------------------------------------------------------------------------

     CUMULATIVE VOLUMES      L**3       RATES FOR THIS TIME STEP      L**3/T
     ------------------                 ------------------------

           IN:                                      IN:
           ---                                      ---
             STORAGE =      157605.3438               STORAGE =        3150.9419
       CONSTANT HEAD =           0.0000         CONSTANT HEAD =           0.0000
               WELLS =           0.0000                 WELLS =           0.0000
     HEAD DEP BOUNDS =           0.4134       HEAD DEP BOUNDS =           0.1113

            TOTAL IN =      157605.7500              TOTAL IN =        3151.0532

          OUT:                                     OUT:
          ----                                     ----
             STORAGE =           0.0000               STORAGE =           0.0000
       CONSTANT HEAD =           0.0000         CONSTANT HEAD =           0.0000
               WELLS =           0.0000                 WELLS =           0.0000
     HEAD DEP BOUNDS =      157605.7656       HEAD DEP BOUNDS =        3151.0657

           TOTAL OUT =      157605.7656             TOTAL OUT =        3151.0657

            IN - OUT =      -1.5625E-02              IN - OUT =      -1.2451E-02

 PERCENT DISCREPANCY =          -0.00     PERCENT DISCREPANCY =          -0.00






         TIME SUMMARY AT END OF TIME STEP   14 IN STRESS PERIOD    2
                    SECONDS     MINUTES      HOURS       DAYS        YEARS
                    -----------------------------------------------------------
   TIME STEP LENGTH  86400.      1440.0      24.000      1.0000     2.73785E-03
 STRESS PERIOD TIME 1.20960E+06  20160.      336.00      14.000     3.83299E-02
         TOTAL TIME 1.29600E+06  21600.      360.00      15.000     4.10678E-02
1
 
 SOLVING FOR HEAD 

 OUTPUT CONTROL FOR STRESS PERIOD    2   TIME STEP   15
    SAVE HEAD FOR ALL LAYERS
    SAVE DRAWDOWN FOR ALL LAYERS
    SAVE BUDGET
    PRINT HEAD FOR ALL LAYERS
    PRINT BUDGET
 UBDSV1 SAVING "         STORAGE" ON UNIT  53 AT TIME STEP 15, STRESS PERIOD   2
 UBDSV2 SAVING "   CONSTANT HEAD" ON UNIT  53 AT TIME STEP 15, STRESS PERIOD   2
 UBDSV1 SAVING "FLOW RIGHT FACE " ON UNIT  53 AT TIME STEP 15, STRESS PERIOD   2
 UBDSV1 SAVING "FLOW FRONT FACE " ON UNIT  53 AT TIME STEP 15, STRESS PERIOD   2
 UBDSV1 SAVING "FLOW LOWER FACE " ON UNIT  53 AT TIME STEP 15, STRESS PERIOD   2
1
              HEAD IN LAYER   1 AT END OF TIME STEP  15 IN STRESS PERIOD    2
  ---------------------------------------------------------------------------

            1           2           3           4           5           6           7           8           9          10
 ........................................................................................................................
   1    10.00      10.000       9.999       9.996       9.980       9.915       9.666       8.813       6.319      6.0849E-03
   2    10.00      10.000       9.999       9.996       9.980       9.915       9.666       8.813       6.319      6.0849E-03
   3    10.00      10.000       9.999       9.996       9.980       9.915       9.666       8.813       6.319      6.0849E-03
   4    10.00      10.000       9.999       9.996       9.980       9.915       9.666       8.813       6.319      6.0849E-03
   5    10.00      10.000       9.999       9.996       9.980       9.915       9.666       8.813       6.319      6.0849E-03
   6    10.00      10.000       9.999       9.996       9.980       9.915       9.666       8.813       6.319      6.0849E-03
   7    10.00      10.000       9.999       9.996       9.980       9.915       9.666       8.813       6.319      6.0849E-03
   8    10.00      10.000       9.999       9.996       9.980       9.915       9.666       8.813       6.319      6.0849E-03
   9    10.00      10.000       9.999       9.996       9.980       9.915       9.666       8.813       6.319      6.0849E-03
  10    10.00      10.000       9.999       9.996       9.980       9.915       9.666       8.813       6.319      6.0849E-03
1
              HEAD IN LAYER   2 AT END OF TIME STEP  15 IN STRESS PERIOD    2
  ---------------------------------------------------------------------------

            1           2           3           4           5           6           7           8           9          10
 ........................................................................................................................
   1    10.00      10.000       9.999       9.995       9.977       9.904       9.631       8.725       6.162      1.2991E-02
   2    10.00      10.000       9.999       9.995       9.977       9.904       9.631       8.725       6.162      1.2991E-02
   3    10.00      10.000       9.999       9.995       9.977       9.904       9.631       8.725       6.162      1.2991E-02
   4    10.00      10.000       9.999       9.995       9.977       9.904       9.631       8.725       6.162      1.2991E-02
   5    10.00      10.000       9.999       9.995       9.977       9.904       9.631       8.725       6.162      1.2991E-02
   6    10.00      10.000       9.999       9.995       9.977       9.904       9.631       8.725       6.162      1.2991E-02
   7    10.00      10.000       9.999       9.995       9.977       9.904       9.631       8.725       6.162      1.2991E-02
   8    10.00      10.000       9.999       9.995       9.977       9.904       9.631       8.725       6.162      1.2991E-02
   9    10.00      10.000       9.999       9.995       9.977       9.904       9.631       8.725       6.162      1.2991E-02
  10    10.00      10.000       9.999       9.995       9.977       9.904       9.631       8.725       6.162      1.2991E-02
1
              HEAD IN LAYER   3 AT END OF TIME STEP  15 IN STRESS PERIOD    2
  ---------------------------------------------------------------------------

            1           2           3           4           5           6           7           8           9          10
 ........................................................................................................................
   1    10.00      10.000       9.999       9.994       9.974       9.895       9.604       8.656       6.026      1.4222E-02
   2    10.00      10.000       9.999       9.994       9.974       9.895       9.604       8.656       6.026      1.4222E-02
   3    10.00      10.000       9.999       9.994       9.974       9.895       9.604       8.656       6.026      1.4222E-02
   4    10.00      10.000       9.999       9.994       9.974       9.895       9.604       8.656       6.026      1.4222E-02
   5    10.00      10.000       9.999       9.994       9.974       9.895       9.604       8.656       6.026      1.4222E-02
   6    10.00      10.000       9.999       9.994       9.974       9.895       9.604       8.656       6.026      1.4222E-02
   7    10.00      10.000       9.999       9.994       9.974       9.895       9.604       8.656       6.026      1.4222E-02
   8    10.00      10.000       9.999       9.994       9.974       9.895       9.604       8.656       6.026      1.4222E-02
   9    10.00      10.000       9.999       9.994       9.974       9.895       9.604       8.656       6.026      1.4222E-02
  10    10.00      10.000       9.999       9.994       9.974       9.895       9.604       8.656       6.026      1.4222E-02
1
              HEAD IN LAYER   4 AT END OF TIME STEP  15 IN STRESS PERIOD    2
  ---------------------------------------------------------------------------

            1           2           3           4           5           6           7           8           9          10
 ........................................................................................................................
   1    10.00      10.000       9.999       9.994       9.973       9.889       9.585       8.610       5.937      1.4205E-02
   2    10.00      10.000       9.999       9.994       9.973       9.889       9.585       8.610       5.937      1.4205E-02
   3    10.00      10.000       9.999       9.994       9.973       9.889       9.585       8.610       5.937      1.4205E-02
   4    10.00      10.000       9.999       9.994       9.973       9.889       9.585       8.610       5.937      1.4205E-02
   5    10.00      10.000       9.999       9.994       9.973       9.889       9.585       8.610       5.937      1.4205E-02
   6    10.00      10.000       9.999       9.994       9.973       9.889       9.585       8.610       5.937      1.4205E-02
   7    10.00      10.000       9.999       9.994       9.973       9.889       9.585       8.610       5.937      1.4205E-02
   8    10.00      10.000       9.999       9.994       9.973       9.889       9.585       8.610       5.937      1.4205E-02
   9    10.00      10.000       9.999       9.994       9.973       9.889       9.585       8.610       5.937      1.4205E-02
  10    10.00      10.000       9.999       9.994       9.973       9.889       9.585       8.610       5.937      1.4205E-02
1
              HEAD IN LAYER   5 AT END OF TIME STEP  15 IN STRESS PERIOD    2
  ---------------------------------------------------------------------------

            1           2           3           4           5           6           7           8           9          10
 ........................................................................................................................
   1    10.00      10.000       9.999       9.993       9.972       9.886       9.576       8.586       5.893      1.4124E-02
   2    10.00      10.000       9.999       9.993       9.972       9.886       9.576       8.586       5.893      1.4124E-02
   3    10.00      10.000       9.999       9.993       9.972       9.886       9.576       8.586       5.893      1.4124E-02
   4    10.00      10.000       9.999       9.993       9.972       9.886       9.576       8.586       5.893      1.4124E-02
   5    10.00      10.000       9.999       9.993       9.972       9.886       9.576       8.586       5.893      1.4124E-02
   6    10.00      10.000       9.999       9.993       9.972       9.886       9.576       8.586       5.893      1.4124E-02
   7    10.00      10.000       9.999       9.993       9.972       9.886       9.576       8.586       5.893      1.4124E-02
   8    10.00      10.000       9.999       9.993       9.972       9.886       9.576       8.586       5.893      1.4124E-02
   9    10.00      10.000       9.999       9.993       9.972       9.886       9.576       8.586       5.893      1.4124E-02
  10    10.00      10.000       9.999       9.993       9.972       9.886       9.576       8.586       5.893      1.4124E-02

 HEAD WILL BE SAVED ON UNIT   51 AT END OF TIME STEP   15, STRESS PERIOD    2

 DRAWDOWN WILL BE SAVED ON UNIT   52 AT END OF TIME STEP   15, STRESS PERIOD    2
1
  VOLUMETRIC BUDGET FOR ENTIRE MODEL AT END OF TIME STEP   15, STRESS PERIOD   2
  ------------------------------------------------------------------------------

     CUMULATIVE VOLUMES      L**3       RATES FOR THIS TIME STEP      L**3/T
     ------------------                 ------------------------

           IN:                                      IN:
           ---                                      ---
             STORAGE =      160686.5625               STORAGE =        3081.2231
       CONSTANT HEAD =           0.0000         CONSTANT HEAD =           0.0000
               WELLS =           0.0000                 WELLS =           0.0000
     HEAD DEP BOUNDS =           0.5561       HEAD DEP BOUNDS =           0.1427

            TOTAL IN =      160687.1250              TOTAL IN =        3081.3657

          OUT:                                     OUT:
          ----                                     ----
             STORAGE =           0.0000               STORAGE =           0.0000
       CONSTANT HEAD =           0.0000         CONSTANT HEAD =           0.0000
               WELLS =           0.0000                 WELLS =           0.0000
     HEAD DEP BOUNDS =      160687.1094       HEAD DEP BOUNDS =        3081.3435

           TOTAL OUT =      160687.1094             TOTAL OUT =        3081.3435

            IN - OUT =       1.5625E-02              IN - OUT =       2.2217E-02

 PERCENT DISCREPANCY =           0.00     PERCENT DISCREPANCY =           0.00






         TIME SUMMARY AT END OF TIME STEP   15 IN STRESS PERIOD    2
                    SECONDS     MINUTES      HOURS       DAYS        YEARS
                    -----------------------------------------------------------
   TIME STEP LENGTH  86400.      1440.0      24.000      1.0000     2.73785E-03
 STRESS PERIOD TIME 1.29600E+06  21600.      360.00      15.000     4.10678E-02
         TOTAL TIME 1.38240E+06  23040.      384.00      16.000     4.38056E-02
1
 
 SOLVING FOR HEAD 

 OUTPUT CONTROL FOR STRESS PERIOD    2   TIME STEP   16
    SAVE HEAD FOR ALL LAYERS
    SAVE DRAWDOWN FOR ALL LAYERS
    SAVE BUDGET
    PRINT HEAD FOR ALL LAYERS
    PRINT BUDGET
 UBDSV1 SAVING "         STORAGE" ON UNIT  53 AT TIME STEP 16, STRESS PERIOD   2
 UBDSV2 SAVING "   CONSTANT HEAD" ON UNIT  53 AT TIME STEP 16, STRESS PERIOD   2
 UBDSV1 SAVING "FLOW RIGHT FACE " ON UNIT  53 AT TIME STEP 16, STRESS PERIOD   2
 UBDSV1 SAVING "FLOW FRONT FACE " ON UNIT  53 AT TIME STEP 16, STRESS PERIOD   2
 UBDSV1 SAVING "FLOW LOWER FACE " ON UNIT  53 AT TIME STEP 16, STRESS PERIOD   2
1
              HEAD IN LAYER   1 AT END OF TIME STEP  16 IN STRESS PERIOD    2
  ---------------------------------------------------------------------------

            1           2           3           4           5           6           7           8           9          10
 ........................................................................................................................
   1    10.00      10.000       9.999       9.995       9.976       9.902       9.628       8.723       6.176      5.9375E-03
   2    10.00      10.000       9.999       9.995       9.976       9.902       9.628       8.723       6.176      5.9375E-03
   3    10.00      10.000       9.999       9.995       9.976       9.902       9.628       8.723       6.176      5.9375E-03
   4    10.00      10.000       9.999       9.995       9.976       9.902       9.628       8.723       6.176      5.9375E-03
   5    10.00      10.000       9.999       9.995       9.976       9.902       9.628       8.723       6.176      5.9375E-03
   6    10.00      10.000       9.999       9.995       9.976       9.902       9.628       8.723       6.176      5.9375E-03
   7    10.00      10.000       9.999       9.995       9.976       9.902       9.628       8.723       6.176      5.9375E-03
   8    10.00      10.000       9.999       9.995       9.976       9.902       9.628       8.723       6.176      5.9375E-03
   9    10.00      10.000       9.999       9.995       9.976       9.902       9.628       8.723       6.176      5.9375E-03
  10    10.00      10.000       9.999       9.995       9.976       9.902       9.628       8.723       6.176      5.9375E-03
1
              HEAD IN LAYER   2 AT END OF TIME STEP  16 IN STRESS PERIOD    2
  ---------------------------------------------------------------------------

            1           2           3           4           5           6           7           8           9          10
 ........................................................................................................................
   1    10.00      10.000       9.999       9.994       9.973       9.890       9.592       8.637       6.028      1.2706E-02
   2    10.00      10.000       9.999       9.994       9.973       9.890       9.592       8.637       6.028      1.2706E-02
   3    10.00      10.000       9.999       9.994       9.973       9.890       9.592       8.637       6.028      1.2706E-02
   4    10.00      10.000       9.999       9.994       9.973       9.890       9.592       8.637       6.028      1.2706E-02
   5    10.00      10.000       9.999       9.994       9.973       9.890       9.592       8.637       6.028      1.2706E-02
   6    10.00      10.000       9.999       9.994       9.973       9.890       9.592       8.637       6.028      1.2706E-02
   7    10.00      10.000       9.999       9.994       9.973       9.890       9.592       8.637       6.028      1.2706E-02
   8    10.00      10.000       9.999       9.994       9.973       9.890       9.592       8.637       6.028      1.2706E-02
   9    10.00      10.000       9.999       9.994       9.973       9.890       9.592       8.637       6.028      1.2706E-02
  10    10.00      10.000       9.999       9.994       9.973       9.890       9.592       8.637       6.028      1.2706E-02
1
              HEAD IN LAYER   3 AT END OF TIME STEP  16 IN STRESS PERIOD    2
  ---------------------------------------------------------------------------

            1           2           3           4           5           6           7           8           9          10
 ........................................................................................................................
   1    10.00      10.000       9.998       9.993       9.970       9.881       9.564       8.568       5.898      1.3920E-02
   2    10.00      10.000       9.998       9.993       9.970       9.881       9.564       8.568       5.898      1.3920E-02
   3    10.00      10.000       9.998       9.993       9.970       9.881       9.564       8.568       5.898      1.3920E-02
   4    10.00      10.000       9.998       9.993       9.970       9.881       9.564       8.568       5.898      1.3920E-02
   5    10.00      10.000       9.998       9.993       9.970       9.881       9.564       8.568       5.898      1.3920E-02
   6    10.00      10.000       9.998       9.993       9.970       9.881       9.564       8.568       5.898      1.3920E-02
   7    10.00      10.000       9.998       9.993       9.970       9.881       9.564       8.568       5.898      1.3920E-02
   8    10.00      10.000       9.998       9.993       9.970       9.881       9.564       8.568       5.898      1.3920E-02
   9    10.00      10.000       9.998       9.993       9.970       9.881       9.564       8.568       5.898      1.3920E-02
  10    10.00      10.000       9.998       9.993       9.970       9.881       9.564       8.568       5.898      1.3920E-02
1
              HEAD IN LAYER   4 AT END OF TIME STEP  16 IN STRESS PERIOD    2
  ---------------------------------------------------------------------------

            1           2           3           4           5           6           7           8           9          10
 ........................................................................................................................
   1    10.00      10.000       9.998       9.992       9.968       9.874       9.545       8.522       5.814      1.3909E-02
   2    10.00      10.000       9.998       9.992       9.968       9.874       9.545       8.522       5.814      1.3909E-02
   3    10.00      10.000       9.998       9.992       9.968       9.874       9.545       8.522       5.814      1.3909E-02
   4    10.00      10.000       9.998       9.992       9.968       9.874       9.545       8.522       5.814      1.3909E-02
   5    10.00      10.000       9.998       9.992       9.968       9.874       9.545       8.522       5.814      1.3909E-02
   6    10.00      10.000       9.998       9.992       9.968       9.874       9.545       8.522       5.814      1.3909E-02
   7    10.00      10.000       9.998       9.992       9.968       9.874       9.545       8.522       5.814      1.3909E-02
   8    10.00      10.000       9.998       9.992       9.968       9.874       9.545       8.522       5.814      1.3909E-02
   9    10.00      10.000       9.998       9.992       9.968       9.874       9.545       8.522       5.814      1.3909E-02
  10    10.00      10.000       9.998       9.992       9.968       9.874       9.545       8.522       5.814      1.3909E-02
1
              HEAD IN LAYER   5 AT END OF TIME STEP  16 IN STRESS PERIOD    2
  ---------------------------------------------------------------------------

            1           2           3           4           5           6           7           8           9          10
 ........................................................................................................................
   1    10.00      10.000       9.998       9.992       9.967       9.871       9.535       8.499       5.772      1.3833E-02
   2    10.00      10.000       9.998       9.992       9.967       9.871       9.535       8.499       5.772      1.3833E-02
   3    10.00      10.000       9.998       9.992       9.967       9.871       9.535       8.499       5.772      1.3833E-02
   4    10.00      10.000       9.998       9.992       9.967       9.871       9.535       8.499       5.772      1.3833E-02
   5    10.00      10.000       9.998       9.992       9.967       9.871       9.535       8.499       5.772      1.3833E-02
   6    10.00      10.000       9.998       9.992       9.967       9.871       9.535       8.499       5.772      1.3833E-02
   7    10.00      10.000       9.998       9.992       9.967       9.871       9.535       8.499       5.772      1.3833E-02
   8    10.00      10.000       9.998       9.992       9.967       9.871       9.535       8.499       5.772      1.3833E-02
   9    10.00      10.000       9.998       9.992       9.967       9.871       9.535       8.499       5.772      1.3833E-02
  10    10.00      10.000       9.998       9.992       9.967       9.871       9.535       8.499       5.772      1.3833E-02

 HEAD WILL BE SAVED ON UNIT   51 AT END OF TIME STEP   16, STRESS PERIOD    2

 DRAWDOWN WILL BE SAVED ON UNIT   52 AT END OF TIME STEP   16, STRESS PERIOD    2
1
  VOLUMETRIC BUDGET FOR ENTIRE MODEL AT END OF TIME STEP   16, STRESS PERIOD   2
  ------------------------------------------------------------------------------

     CUMULATIVE VOLUMES      L**3       RATES FOR THIS TIME STEP      L**3/T
     ------------------                 ------------------------

           IN:                                      IN:
           ---                                      ---
             STORAGE =      163701.6250               STORAGE =        3015.0620
       CONSTANT HEAD =           0.0000         CONSTANT HEAD =           0.0000
               WELLS =           0.0000                 WELLS =           0.0000
     HEAD DEP BOUNDS =           0.7364       HEAD DEP BOUNDS =           0.1803

            TOTAL IN =      163702.3594              TOTAL IN =        3015.2422

          OUT:                                     OUT:
          ----                                     ----
             STORAGE =           0.0000               STORAGE =           0.0000
       CONSTANT HEAD =           0.0000         CONSTANT HEAD =           0.0000
               WELLS =           0.0000                 WELLS =           0.0000
     HEAD DEP BOUNDS =      163702.3594       HEAD DEP BOUNDS =        3015.2561

           TOTAL OUT =      163702.3594             TOTAL OUT =        3015.2561

            IN - OUT =           0.0000              IN - OUT =      -1.3916E-02

 PERCENT DISCREPANCY =           0.00     PERCENT DISCREPANCY =          -0.00






         TIME SUMMARY AT END OF TIME STEP   16 IN STRESS PERIOD    2
                    SECONDS     MINUTES      HOURS       DAYS        YEARS
                    -----------------------------------------------------------
   TIME STEP LENGTH  86400.      1440.0      24.000      1.0000     2.73785E-03
 STRESS PERIOD TIME 1.38240E+06  23040.      384.00      16.000     4.38056E-02
         TOTAL TIME 1.46880E+06  24480.      408.00      17.000     4.65435E-02
1
 
 SOLVING FOR HEAD 

 OUTPUT CONTROL FOR STRESS PERIOD    2   TIME STEP   17
    SAVE HEAD FOR ALL LAYERS
    SAVE DRAWDOWN FOR ALL LAYERS
    SAVE BUDGET
    PRINT HEAD FOR ALL LAYERS
    PRINT BUDGET
 UBDSV1 SAVING "         STORAGE" ON UNIT  53 AT TIME STEP 17, STRESS PERIOD   2
 UBDSV2 SAVING "   CONSTANT HEAD" ON UNIT  53 AT TIME STEP 17, STRESS PERIOD   2
 UBDSV1 SAVING "FLOW RIGHT FACE " ON UNIT  53 AT TIME STEP 17, STRESS PERIOD   2
 UBDSV1 SAVING "FLOW FRONT FACE " ON UNIT  53 AT TIME STEP 17, STRESS PERIOD   2
 UBDSV1 SAVING "FLOW LOWER FACE " ON UNIT  53 AT TIME STEP 17, STRESS PERIOD   2
1
              HEAD IN LAYER   1 AT END OF TIME STEP  17 IN STRESS PERIOD    2
  ---------------------------------------------------------------------------

            1           2           3           4           5           6           7           8           9          10
 ........................................................................................................................
   1    10.00      10.000       9.999       9.994       9.972       9.889       9.589       8.634       6.040      5.7983E-03
   2    10.00      10.000       9.999       9.994       9.972       9.889       9.589       8.634       6.040      5.7983E-03
   3    10.00      10.000       9.999       9.994       9.972       9.889       9.589       8.634       6.040      5.7983E-03
   4    10.00      10.000       9.999       9.994       9.972       9.889       9.589       8.634       6.040      5.7983E-03
   5    10.00      10.000       9.999       9.994       9.972       9.889       9.589       8.634       6.040      5.7983E-03
   6    10.00      10.000       9.999       9.994       9.972       9.889       9.589       8.634       6.040      5.7983E-03
   7    10.00      10.000       9.999       9.994       9.972       9.889       9.589       8.634       6.040      5.7983E-03
   8    10.00      10.000       9.999       9.994       9.972       9.889       9.589       8.634       6.040      5.7983E-03
   9    10.00      10.000       9.999       9.994       9.972       9.889       9.589       8.634       6.040      5.7983E-03
  10    10.00      10.000       9.999       9.994       9.972       9.889       9.589       8.634       6.040      5.7983E-03
1
              HEAD IN LAYER   2 AT END OF TIME STEP  17 IN STRESS PERIOD    2
  ---------------------------------------------------------------------------

            1           2           3           4           5           6           7           8           9          10
 ........................................................................................................................
   1    10.00      10.000       9.998       9.992       9.968       9.876       9.552       8.549       5.900      1.2435E-02
   2    10.00      10.000       9.998       9.992       9.968       9.876       9.552       8.549       5.900      1.2435E-02
   3    10.00      10.000       9.998       9.992       9.968       9.876       9.552       8.549       5.900      1.2435E-02
   4    10.00      10.000       9.998       9.992       9.968       9.876       9.552       8.549       5.900      1.2435E-02
   5    10.00      10.000       9.998       9.992       9.968       9.876       9.552       8.549       5.900      1.2435E-02
   6    10.00      10.000       9.998       9.992       9.968       9.876       9.552       8.549       5.900      1.2435E-02
   7    10.00      10.000       9.998       9.992       9.968       9.876       9.552       8.549       5.900      1.2435E-02
   8    10.00      10.000       9.998       9.992       9.968       9.876       9.552       8.549       5.900      1.2435E-02
   9    10.00      10.000       9.998       9.992       9.968       9.876       9.552       8.549       5.900      1.2435E-02
  10    10.00      10.000       9.998       9.992       9.968       9.876       9.552       8.549       5.900      1.2435E-02
1
              HEAD IN LAYER   3 AT END OF TIME STEP  17 IN STRESS PERIOD    2
  ---------------------------------------------------------------------------

            1           2           3           4           5           6           7           8           9          10
 ........................................................................................................................
   1    10.00      10.000       9.998       9.992       9.965       9.866       9.523       8.480       5.777      1.3633E-02
   2    10.00      10.000       9.998       9.992       9.965       9.866       9.523       8.480       5.777      1.3633E-02
   3    10.00      10.000       9.998       9.992       9.965       9.866       9.523       8.480       5.777      1.3633E-02
   4    10.00      10.000       9.998       9.992       9.965       9.866       9.523       8.480       5.777      1.3633E-02
   5    10.00      10.000       9.998       9.992       9.965       9.866       9.523       8.480       5.777      1.3633E-02
   6    10.00      10.000       9.998       9.992       9.965       9.866       9.523       8.480       5.777      1.3633E-02
   7    10.00      10.000       9.998       9.992       9.965       9.866       9.523       8.480       5.777      1.3633E-02
   8    10.00      10.000       9.998       9.992       9.965       9.866       9.523       8.480       5.777      1.3633E-02
   9    10.00      10.000       9.998       9.992       9.965       9.866       9.523       8.480       5.777      1.3633E-02
  10    10.00      10.000       9.998       9.992       9.965       9.866       9.523       8.480       5.777      1.3633E-02
1
              HEAD IN LAYER   4 AT END OF TIME STEP  17 IN STRESS PERIOD    2
  ---------------------------------------------------------------------------

            1           2           3           4           5           6           7           8           9          10
 ........................................................................................................................
   1    10.00      10.000       9.998       9.991       9.963       9.859       9.504       8.435       5.697      1.3629E-02
   2    10.00      10.000       9.998       9.991       9.963       9.859       9.504       8.435       5.697      1.3629E-02
   3    10.00      10.000       9.998       9.991       9.963       9.859       9.504       8.435       5.697      1.3629E-02
   4    10.00      10.000       9.998       9.991       9.963       9.859       9.504       8.435       5.697      1.3629E-02
   5    10.00      10.000       9.998       9.991       9.963       9.859       9.504       8.435       5.697      1.3629E-02
   6    10.00      10.000       9.998       9.991       9.963       9.859       9.504       8.435       5.697      1.3629E-02
   7    10.00      10.000       9.998       9.991       9.963       9.859       9.504       8.435       5.697      1.3629E-02
   8    10.00      10.000       9.998       9.991       9.963       9.859       9.504       8.435       5.697      1.3629E-02
   9    10.00      10.000       9.998       9.991       9.963       9.859       9.504       8.435       5.697      1.3629E-02
  10    10.00      10.000       9.998       9.991       9.963       9.859       9.504       8.435       5.697      1.3629E-02
1
              HEAD IN LAYER   5 AT END OF TIME STEP  17 IN STRESS PERIOD    2
  ---------------------------------------------------------------------------

            1           2           3           4           5           6           7           8           9          10
 ........................................................................................................................
   1    10.00      10.000       9.998       9.991       9.962       9.855       9.494       8.412       5.657      1.3556E-02
   2    10.00      10.000       9.998       9.991       9.962       9.855       9.494       8.412       5.657      1.3556E-02
   3    10.00      10.000       9.998       9.991       9.962       9.855       9.494       8.412       5.657      1.3556E-02
   4    10.00      10.000       9.998       9.991       9.962       9.855       9.494       8.412       5.657      1.3556E-02
   5    10.00      10.000       9.998       9.991       9.962       9.855       9.494       8.412       5.657      1.3556E-02
   6    10.00      10.000       9.998       9.991       9.962       9.855       9.494       8.412       5.657      1.3556E-02
   7    10.00      10.000       9.998       9.991       9.962       9.855       9.494       8.412       5.657      1.3556E-02
   8    10.00      10.000       9.998       9.991       9.962       9.855       9.494       8.412       5.657      1.3556E-02
   9    10.00      10.000       9.998       9.991       9.962       9.855       9.494       8.412       5.657      1.3556E-02
  10    10.00      10.000       9.998       9.991       9.962       9.855       9.494       8.412       5.657      1.3556E-02

 HEAD WILL BE SAVED ON UNIT   51 AT END OF TIME STEP   17, STRESS PERIOD    2

 DRAWDOWN WILL BE SAVED ON UNIT   52 AT END OF TIME STEP   17, STRESS PERIOD    2
1
  VOLUMETRIC BUDGET FOR ENTIRE MODEL AT END OF TIME STEP   17, STRESS PERIOD   2
  ------------------------------------------------------------------------------

     CUMULATIVE VOLUMES      L**3       RATES FOR THIS TIME STEP      L**3/T
     ------------------                 ------------------------

           IN:                                      IN:
           ---                                      ---
             STORAGE =      166653.9688               STORAGE =        2952.3391
       CONSTANT HEAD =           0.0000         CONSTANT HEAD =           0.0000
               WELLS =           0.0000                 WELLS =           0.0000
     HEAD DEP BOUNDS =           0.9607       HEAD DEP BOUNDS =           0.2244

            TOTAL IN =      166654.9219              TOTAL IN =        2952.5635

          OUT:                                     OUT:
          ----                                     ----
             STORAGE =           0.0000               STORAGE =           0.0000
       CONSTANT HEAD =           0.0000         CONSTANT HEAD =           0.0000
               WELLS =           0.0000                 WELLS =           0.0000
     HEAD DEP BOUNDS =      166654.9219       HEAD DEP BOUNDS =        2952.5696

           TOTAL OUT =      166654.9219             TOTAL OUT =        2952.5696

            IN - OUT =           0.0000              IN - OUT =      -6.1035E-03

 PERCENT DISCREPANCY =           0.00     PERCENT DISCREPANCY =          -0.00






         TIME SUMMARY AT END OF TIME STEP   17 IN STRESS PERIOD    2
                    SECONDS     MINUTES      HOURS       DAYS        YEARS
                    -----------------------------------------------------------
   TIME STEP LENGTH  86400.      1440.0      24.000      1.0000     2.73785E-03
 STRESS PERIOD TIME 1.46880E+06  24480.      408.00      17.000     4.65435E-02
         TOTAL TIME 1.55520E+06  25920.      432.00      18.000     4.92813E-02
1
 
 SOLVING FOR HEAD 

 OUTPUT CONTROL FOR STRESS PERIOD    2   TIME STEP   18
    SAVE HEAD FOR ALL LAYERS
    SAVE DRAWDOWN FOR ALL LAYERS
    SAVE BUDGET
    PRINT HEAD FOR ALL LAYERS
    PRINT BUDGET
 UBDSV1 SAVING "         STORAGE" ON UNIT  53 AT TIME STEP 18, STRESS PERIOD   2
 UBDSV2 SAVING "   CONSTANT HEAD" ON UNIT  53 AT TIME STEP 18, STRESS PERIOD   2
 UBDSV1 SAVING "FLOW RIGHT FACE " ON UNIT  53 AT TIME STEP 18, STRESS PERIOD   2
 UBDSV1 SAVING "FLOW FRONT FACE " ON UNIT  53 AT TIME STEP 18, STRESS PERIOD   2
 UBDSV1 SAVING "FLOW LOWER FACE " ON UNIT  53 AT TIME STEP 18, STRESS PERIOD   2
1
              HEAD IN LAYER   1 AT END OF TIME STEP  18 IN STRESS PERIOD    2
  ---------------------------------------------------------------------------

            1           2           3           4           5           6           7           8           9          10
 ........................................................................................................................
   1    10.00      10.000       9.998       9.992       9.968       9.875       9.550       8.547       5.912      5.6665E-03
   2    10.00      10.000       9.998       9.992       9.968       9.875       9.550       8.547       5.912      5.6665E-03
   3    10.00      10.000       9.998       9.992       9.968       9.875       9.550       8.547       5.912      5.6665E-03
   4    10.00      10.000       9.998       9.992       9.968       9.875       9.550       8.547       5.912      5.6665E-03
   5    10.00      10.000       9.998       9.992       9.968       9.875       9.550       8.547       5.912      5.6665E-03
   6    10.00      10.000       9.998       9.992       9.968       9.875       9.550       8.547       5.912      5.6665E-03
   7    10.00      10.000       9.998       9.992       9.968       9.875       9.550       8.547       5.912      5.6665E-03
   8    10.00      10.000       9.998       9.992       9.968       9.875       9.550       8.547       5.912      5.6665E-03
   9    10.00      10.000       9.998       9.992       9.968       9.875       9.550       8.547       5.912      5.6665E-03
  10    10.00      10.000       9.998       9.992       9.968       9.875       9.550       8.547       5.912      5.6665E-03
1
              HEAD IN LAYER   2 AT END OF TIME STEP  18 IN STRESS PERIOD    2
  ---------------------------------------------------------------------------

            1           2           3           4           5           6           7           8           9          10
 ........................................................................................................................
   1    10.00      10.000       9.998       9.991       9.963       9.861       9.511       8.462       5.779      1.2179E-02
   2    10.00      10.000       9.998       9.991       9.963       9.861       9.511       8.462       5.779      1.2179E-02
   3    10.00      10.000       9.998       9.991       9.963       9.861       9.511       8.462       5.779      1.2179E-02
   4    10.00      10.000       9.998       9.991       9.963       9.861       9.511       8.462       5.779      1.2179E-02
   5    10.00      10.000       9.998       9.991       9.963       9.861       9.511       8.462       5.779      1.2179E-02
   6    10.00      10.000       9.998       9.991       9.963       9.861       9.511       8.462       5.779      1.2179E-02
   7    10.00      10.000       9.998       9.991       9.963       9.861       9.511       8.462       5.779      1.2179E-02
   8    10.00      10.000       9.998       9.991       9.963       9.861       9.511       8.462       5.779      1.2179E-02
   9    10.00      10.000       9.998       9.991       9.963       9.861       9.511       8.462       5.779      1.2179E-02
  10    10.00      10.000       9.998       9.991       9.963       9.861       9.511       8.462       5.779      1.2179E-02
1
              HEAD IN LAYER   3 AT END OF TIME STEP  18 IN STRESS PERIOD    2
  ---------------------------------------------------------------------------

            1           2           3           4           5           6           7           8           9          10
 ........................................................................................................................
   1    10.00      10.000       9.998       9.990       9.960       9.850       9.481       8.395       5.662      1.3361E-02
   2    10.00      10.000       9.998       9.990       9.960       9.850       9.481       8.395       5.662      1.3361E-02
   3    10.00      10.000       9.998       9.990       9.960       9.850       9.481       8.395       5.662      1.3361E-02
   4    10.00      10.000       9.998       9.990       9.960       9.850       9.481       8.395       5.662      1.3361E-02
   5    10.00      10.000       9.998       9.990       9.960       9.850       9.481       8.395       5.662      1.3361E-02
   6    10.00      10.000       9.998       9.990       9.960       9.850       9.481       8.395       5.662      1.3361E-02
   7    10.00      10.000       9.998       9.990       9.960       9.850       9.481       8.395       5.662      1.3361E-02
   8    10.00      10.000       9.998       9.990       9.960       9.850       9.481       8.395       5.662      1.3361E-02
   9    10.00      10.000       9.998       9.990       9.960       9.850       9.481       8.395       5.662      1.3361E-02
  10    10.00      10.000       9.998       9.990       9.960       9.850       9.481       8.395       5.662      1.3361E-02
1
              HEAD IN LAYER   4 AT END OF TIME STEP  18 IN STRESS PERIOD    2
  ---------------------------------------------------------------------------

            1           2           3           4           5           6           7           8           9          10
 ........................................................................................................................
   1    10.00       9.999       9.998       9.989       9.958       9.843       9.461       8.349       5.585      1.3361E-02
   2    10.00       9.999       9.998       9.989       9.958       9.843       9.461       8.349       5.585      1.3361E-02
   3    10.00       9.999       9.998       9.989       9.958       9.843       9.461       8.349       5.585      1.3361E-02
   4    10.00       9.999       9.998       9.989       9.958       9.843       9.461       8.349       5.585      1.3361E-02
   5    10.00       9.999       9.998       9.989       9.958       9.843       9.461       8.349       5.585      1.3361E-02
   6    10.00       9.999       9.998       9.989       9.958       9.843       9.461       8.349       5.585      1.3361E-02
   7    10.00       9.999       9.998       9.989       9.958       9.843       9.461       8.349       5.585      1.3361E-02
   8    10.00       9.999       9.998       9.989       9.958       9.843       9.461       8.349       5.585      1.3361E-02
   9    10.00       9.999       9.998       9.989       9.958       9.843       9.461       8.349       5.585      1.3361E-02
  10    10.00       9.999       9.998       9.989       9.958       9.843       9.461       8.349       5.585      1.3361E-02
1
              HEAD IN LAYER   5 AT END OF TIME STEP  18 IN STRESS PERIOD    2
  ---------------------------------------------------------------------------

            1           2           3           4           5           6           7           8           9          10
 ........................................................................................................................
   1    10.00       9.999       9.997       9.989       9.957       9.839       9.451       8.327       5.547      1.3293E-02
   2    10.00       9.999       9.997       9.989       9.957       9.839       9.451       8.327       5.547      1.3293E-02
   3    10.00       9.999       9.997       9.989       9.957       9.839       9.451       8.327       5.547      1.3293E-02
   4    10.00       9.999       9.997       9.989       9.957       9.839       9.451       8.327       5.547      1.3293E-02
   5    10.00       9.999       9.997       9.989       9.957       9.839       9.451       8.327       5.547      1.3293E-02
   6    10.00       9.999       9.997       9.989       9.957       9.839       9.451       8.327       5.547      1.3293E-02
   7    10.00       9.999       9.997       9.989       9.957       9.839       9.451       8.327       5.547      1.3293E-02
   8    10.00       9.999       9.997       9.989       9.957       9.839       9.451       8.327       5.547      1.3293E-02
   9    10.00       9.999       9.997       9.989       9.957       9.839       9.451       8.327       5.547      1.3293E-02
  10    10.00       9.999       9.997       9.989       9.957       9.839       9.451       8.327       5.547      1.3293E-02

 HEAD WILL BE SAVED ON UNIT   51 AT END OF TIME STEP   18, STRESS PERIOD    2

 DRAWDOWN WILL BE SAVED ON UNIT   52 AT END OF TIME STEP   18, STRESS PERIOD    2
1
  VOLUMETRIC BUDGET FOR ENTIRE MODEL AT END OF TIME STEP   18, STRESS PERIOD   2
  ------------------------------------------------------------------------------

     CUMULATIVE VOLUMES      L**3       RATES FOR THIS TIME STEP      L**3/T
     ------------------                 ------------------------

           IN:                                      IN:
           ---                                      ---
             STORAGE =      169546.7188               STORAGE =        2892.7466
       CONSTANT HEAD =           0.0000         CONSTANT HEAD =           0.0000
               WELLS =           0.0000                 WELLS =           0.0000
     HEAD DEP BOUNDS =           1.2374       HEAD DEP BOUNDS =           0.2767

            TOTAL IN =      169547.9531              TOTAL IN =        2893.0232

          OUT:                                     OUT:
          ----                                     ----
             STORAGE =           0.0000               STORAGE =           0.0000
       CONSTANT HEAD =           0.0000         CONSTANT HEAD =           0.0000
               WELLS =           0.0000                 WELLS =           0.0000
     HEAD DEP BOUNDS =      169547.9531       HEAD DEP BOUNDS =        2893.0244

           TOTAL OUT =      169547.9531             TOTAL OUT =        2893.0244

            IN - OUT =           0.0000              IN - OUT =      -1.2207E-03

 PERCENT DISCREPANCY =           0.00     PERCENT DISCREPANCY =          -0.00






         TIME SUMMARY AT END OF TIME STEP   18 IN STRESS PERIOD    2
                    SECONDS     MINUTES      HOURS       DAYS        YEARS
                    -----------------------------------------------------------
   TIME STEP LENGTH  86400.      1440.0      24.000      1.0000     2.73785E-03
 STRESS PERIOD TIME 1.55520E+06  25920.      432.00      18.000     4.92813E-02
         TOTAL TIME 1.64160E+06  27360.      456.00      19.000     5.20192E-02
1
 
 SOLVING FOR HEAD 

 OUTPUT CONTROL FOR STRESS PERIOD    2   TIME STEP   19
    SAVE HEAD FOR ALL LAYERS
    SAVE DRAWDOWN FOR ALL LAYERS
    SAVE BUDGET
    PRINT HEAD FOR ALL LAYERS
    PRINT BUDGET
 UBDSV1 SAVING "         STORAGE" ON UNIT  53 AT TIME STEP 19, STRESS PERIOD   2
 UBDSV2 SAVING "   CONSTANT HEAD" ON UNIT  53 AT TIME STEP 19, STRESS PERIOD   2
 UBDSV1 SAVING "FLOW RIGHT FACE " ON UNIT  53 AT TIME STEP 19, STRESS PERIOD   2
 UBDSV1 SAVING "FLOW FRONT FACE " ON UNIT  53 AT TIME STEP 19, STRESS PERIOD   2
 UBDSV1 SAVING "FLOW LOWER FACE " ON UNIT  53 AT TIME STEP 19, STRESS PERIOD   2
1
              HEAD IN LAYER   1 AT END OF TIME STEP  19 IN STRESS PERIOD    2
  ---------------------------------------------------------------------------

            1           2           3           4           5           6           7           8           9          10
 ........................................................................................................................
   1    10.00      10.000       9.998       9.991       9.963       9.859       9.509       8.460       5.790      5.5415E-03
   2    10.00      10.000       9.998       9.991       9.963       9.859       9.509       8.460       5.790      5.5415E-03
   3    10.00      10.000       9.998       9.991       9.963       9.859       9.509       8.460       5.790      5.5415E-03
   4    10.00      10.000       9.998       9.991       9.963       9.859       9.509       8.460       5.790      5.5415E-03
   5    10.00      10.000       9.998       9.991       9.963       9.859       9.509       8.460       5.790      5.5415E-03
   6    10.00      10.000       9.998       9.991       9.963       9.859       9.509       8.460       5.790      5.5415E-03
   7    10.00      10.000       9.998       9.991       9.963       9.859       9.509       8.460       5.790      5.5415E-03
   8    10.00      10.000       9.998       9.991       9.963       9.859       9.509       8.460       5.790      5.5415E-03
   9    10.00      10.000       9.998       9.991       9.963       9.859       9.509       8.460       5.790      5.5415E-03
  10    10.00      10.000       9.998       9.991       9.963       9.859       9.509       8.460       5.790      5.5415E-03
1
              HEAD IN LAYER   2 AT END OF TIME STEP  19 IN STRESS PERIOD    2
  ---------------------------------------------------------------------------

            1           2           3           4           5           6           7           8           9          10
 ........................................................................................................................
   1    10.00       9.999       9.998       9.990       9.958       9.845       9.469       8.377       5.664      1.1935E-02
   2    10.00       9.999       9.998       9.990       9.958       9.845       9.469       8.377       5.664      1.1935E-02
   3    10.00       9.999       9.998       9.990       9.958       9.845       9.469       8.377       5.664      1.1935E-02
   4    10.00       9.999       9.998       9.990       9.958       9.845       9.469       8.377       5.664      1.1935E-02
   5    10.00       9.999       9.998       9.990       9.958       9.845       9.469       8.377       5.664      1.1935E-02
   6    10.00       9.999       9.998       9.990       9.958       9.845       9.469       8.377       5.664      1.1935E-02
   7    10.00       9.999       9.998       9.990       9.958       9.845       9.469       8.377       5.664      1.1935E-02
   8    10.00       9.999       9.998       9.990       9.958       9.845       9.469       8.377       5.664      1.1935E-02
   9    10.00       9.999       9.998       9.990       9.958       9.845       9.469       8.377       5.664      1.1935E-02
  10    10.00       9.999       9.998       9.990       9.958       9.845       9.469       8.377       5.664      1.1935E-02
1
              HEAD IN LAYER   3 AT END OF TIME STEP  19 IN STRESS PERIOD    2
  ---------------------------------------------------------------------------

            1           2           3           4           5           6           7           8           9          10
 ........................................................................................................................
   1    10.00       9.999       9.997       9.988       9.955       9.833       9.439       8.310       5.552      1.3102E-02
   2    10.00       9.999       9.997       9.988       9.955       9.833       9.439       8.310       5.552      1.3102E-02
   3    10.00       9.999       9.997       9.988       9.955       9.833       9.439       8.310       5.552      1.3102E-02
   4    10.00       9.999       9.997       9.988       9.955       9.833       9.439       8.310       5.552      1.3102E-02
   5    10.00       9.999       9.997       9.988       9.955       9.833       9.439       8.310       5.552      1.3102E-02
   6    10.00       9.999       9.997       9.988       9.955       9.833       9.439       8.310       5.552      1.3102E-02
   7    10.00       9.999       9.997       9.988       9.955       9.833       9.439       8.310       5.552      1.3102E-02
   8    10.00       9.999       9.997       9.988       9.955       9.833       9.439       8.310       5.552      1.3102E-02
   9    10.00       9.999       9.997       9.988       9.955       9.833       9.439       8.310       5.552      1.3102E-02
  10    10.00       9.999       9.997       9.988       9.955       9.833       9.439       8.310       5.552      1.3102E-02
1
              HEAD IN LAYER   4 AT END OF TIME STEP  19 IN STRESS PERIOD    2
  ---------------------------------------------------------------------------

            1           2           3           4           5           6           7           8           9          10
 ........................................................................................................................
   1    10.00       9.999       9.997       9.988       9.952       9.826       9.419       8.265       5.479      1.3107E-02
   2    10.00       9.999       9.997       9.988       9.952       9.826       9.419       8.265       5.479      1.3107E-02
   3    10.00       9.999       9.997       9.988       9.952       9.826       9.419       8.265       5.479      1.3107E-02
   4    10.00       9.999       9.997       9.988       9.952       9.826       9.419       8.265       5.479      1.3107E-02
   5    10.00       9.999       9.997       9.988       9.952       9.826       9.419       8.265       5.479      1.3107E-02
   6    10.00       9.999       9.997       9.988       9.952       9.826       9.419       8.265       5.479      1.3107E-02
   7    10.00       9.999       9.997       9.988       9.952       9.826       9.419       8.265       5.479      1.3107E-02
   8    10.00       9.999       9.997       9.988       9.952       9.826       9.419       8.265       5.479      1.3107E-02
   9    10.00       9.999       9.997       9.988       9.952       9.826       9.419       8.265       5.479      1.3107E-02
  10    10.00       9.999       9.997       9.988       9.952       9.826       9.419       8.265       5.479      1.3107E-02
1
              HEAD IN LAYER   5 AT END OF TIME STEP  19 IN STRESS PERIOD    2
  ---------------------------------------------------------------------------

            1           2           3           4           5           6           7           8           9          10
 ........................................................................................................................
   1    10.00       9.999       9.997       9.987       9.951       9.822       9.409       8.243       5.443      1.3043E-02
   2    10.00       9.999       9.997       9.987       9.951       9.822       9.409       8.243       5.443      1.3043E-02
   3    10.00       9.999       9.997       9.987       9.951       9.822       9.409       8.243       5.443      1.3043E-02
   4    10.00       9.999       9.997       9.987       9.951       9.822       9.409       8.243       5.443      1.3043E-02
   5    10.00       9.999       9.997       9.987       9.951       9.822       9.409       8.243       5.443      1.3043E-02
   6    10.00       9.999       9.997       9.987       9.951       9.822       9.409       8.243       5.443      1.3043E-02
   7    10.00       9.999       9.997       9.987       9.951       9.822       9.409       8.243       5.443      1.3043E-02
   8    10.00       9.999       9.997       9.987       9.951       9.822       9.409       8.243       5.443      1.3043E-02
   9    10.00       9.999       9.997       9.987       9.951       9.822       9.409       8.243       5.443      1.3043E-02
  10    10.00       9.999       9.997       9.987       9.951       9.822       9.409       8.243       5.443      1.3043E-02

 HEAD WILL BE SAVED ON UNIT   51 AT END OF TIME STEP   19, STRESS PERIOD    2

 DRAWDOWN WILL BE SAVED ON UNIT   52 AT END OF TIME STEP   19, STRESS PERIOD    2
1
  VOLUMETRIC BUDGET FOR ENTIRE MODEL AT END OF TIME STEP   19, STRESS PERIOD   2
  ------------------------------------------------------------------------------

     CUMULATIVE VOLUMES      L**3       RATES FOR THIS TIME STEP      L**3/T
     ------------------                 ------------------------

           IN:                                      IN:
           ---                                      ---
             STORAGE =      172382.7656               STORAGE =        2836.0444
       CONSTANT HEAD =           0.0000         CONSTANT HEAD =           0.0000
               WELLS =           0.0000                 WELLS =           0.0000
     HEAD DEP BOUNDS =           1.5750       HEAD DEP BOUNDS =           0.3376

            TOTAL IN =      172384.3438              TOTAL IN =        2836.3821

          OUT:                                     OUT:
          ----                                     ----
             STORAGE =           0.0000               STORAGE =           0.0000
       CONSTANT HEAD =           0.0000         CONSTANT HEAD =           0.0000
               WELLS =           0.0000                 WELLS =           0.0000
     HEAD DEP BOUNDS =      172384.3438       HEAD DEP BOUNDS =        2836.3970

           TOTAL OUT =      172384.3438             TOTAL OUT =        2836.3970

            IN - OUT =           0.0000              IN - OUT =      -1.4893E-02

 PERCENT DISCREPANCY =           0.00     PERCENT DISCREPANCY =          -0.00






         TIME SUMMARY AT END OF TIME STEP   19 IN STRESS PERIOD    2
                    SECONDS     MINUTES      HOURS       DAYS        YEARS
                    -----------------------------------------------------------
   TIME STEP LENGTH  86400.      1440.0      24.000      1.0000     2.73785E-03
 STRESS PERIOD TIME 1.64160E+06  27360.      456.00      19.000     5.20192E-02
         TOTAL TIME 1.72800E+06  28800.      480.00      20.000     5.47570E-02
1
 
 SOLVING FOR HEAD 

 OUTPUT CONTROL FOR STRESS PERIOD    2   TIME STEP   20
    SAVE HEAD FOR ALL LAYERS
    SAVE DRAWDOWN FOR ALL LAYERS
    SAVE BUDGET
    PRINT HEAD FOR ALL LAYERS
    PRINT BUDGET
 UBDSV1 SAVING "         STORAGE" ON UNIT  53 AT TIME STEP 20, STRESS PERIOD   2
 UBDSV2 SAVING "   CONSTANT HEAD" ON UNIT  53 AT TIME STEP 20, STRESS PERIOD   2
 UBDSV1 SAVING "FLOW RIGHT FACE " ON UNIT  53 AT TIME STEP 20, STRESS PERIOD   2
 UBDSV1 SAVING "FLOW FRONT FACE " ON UNIT  53 AT TIME STEP 20, STRESS PERIOD   2
 UBDSV1 SAVING "FLOW LOWER FACE " ON UNIT  53 AT TIME STEP 20, STRESS PERIOD   2
1
              HEAD IN LAYER   1 AT END OF TIME STEP  20 IN STRESS PERIOD    2
  ---------------------------------------------------------------------------

            1           2           3           4           5           6           7           8           9          10
 ........................................................................................................................
   1    10.00       9.999       9.997       9.989       9.958       9.843       9.467       8.375       5.675      5.4229E-03
   2    10.00       9.999       9.997       9.989       9.958       9.843       9.467       8.375       5.675      5.4229E-03
   3    10.00       9.999       9.997       9.989       9.958       9.843       9.467       8.375       5.675      5.4229E-03
   4    10.00       9.999       9.997       9.989       9.958       9.843       9.467       8.375       5.675      5.4229E-03
   5    10.00       9.999       9.997       9.989       9.958       9.843       9.467       8.375       5.675      5.4229E-03
   6    10.00       9.999       9.997       9.989       9.958       9.843       9.467       8.375       5.675      5.4229E-03
   7    10.00       9.999       9.997       9.989       9.958       9.843       9.467       8.375       5.675      5.4229E-03
   8    10.00       9.999       9.997       9.989       9.958       9.843       9.467       8.375       5.675      5.4229E-03
   9    10.00       9.999       9.997       9.989       9.958       9.843       9.467       8.375       5.675      5.4229E-03
  10    10.00       9.999       9.997       9.989       9.958       9.843       9.467       8.375       5.675      5.4229E-03
1
              HEAD IN LAYER   2 AT END OF TIME STEP  20 IN STRESS PERIOD    2
  ---------------------------------------------------------------------------

            1           2           3           4           5           6           7           8           9          10
 ........................................................................................................................
   1    10.00       9.999       9.997       9.988       9.953       9.828       9.427       8.293       5.555      1.1703E-02
   2    10.00       9.999       9.997       9.988       9.953       9.828       9.427       8.293       5.555      1.1703E-02
   3    10.00       9.999       9.997       9.988       9.953       9.828       9.427       8.293       5.555      1.1703E-02
   4    10.00       9.999       9.997       9.988       9.953       9.828       9.427       8.293       5.555      1.1703E-02
   5    10.00       9.999       9.997       9.988       9.953       9.828       9.427       8.293       5.555      1.1703E-02
   6    10.00       9.999       9.997       9.988       9.953       9.828       9.427       8.293       5.555      1.1703E-02
   7    10.00       9.999       9.997       9.988       9.953       9.828       9.427       8.293       5.555      1.1703E-02
   8    10.00       9.999       9.997       9.988       9.953       9.828       9.427       8.293       5.555      1.1703E-02
   9    10.00       9.999       9.997       9.988       9.953       9.828       9.427       8.293       5.555      1.1703E-02
  10    10.00       9.999       9.997       9.988       9.953       9.828       9.427       8.293       5.555      1.1703E-02
1
              HEAD IN LAYER   3 AT END OF TIME STEP  20 IN STRESS PERIOD    2
  ---------------------------------------------------------------------------

            1           2           3           4           5           6           7           8           9          10
 ........................................................................................................................
   1    10.00       9.999       9.997       9.987       9.949       9.816       9.396       8.227       5.448      1.2855E-02
   2    10.00       9.999       9.997       9.987       9.949       9.816       9.396       8.227       5.448      1.2855E-02
   3    10.00       9.999       9.997       9.987       9.949       9.816       9.396       8.227       5.448      1.2855E-02
   4    10.00       9.999       9.997       9.987       9.949       9.816       9.396       8.227       5.448      1.2855E-02
   5    10.00       9.999       9.997       9.987       9.949       9.816       9.396       8.227       5.448      1.2855E-02
   6    10.00       9.999       9.997       9.987       9.949       9.816       9.396       8.227       5.448      1.2855E-02
   7    10.00       9.999       9.997       9.987       9.949       9.816       9.396       8.227       5.448      1.2855E-02
   8    10.00       9.999       9.997       9.987       9.949       9.816       9.396       8.227       5.448      1.2855E-02
   9    10.00       9.999       9.997       9.987       9.949       9.816       9.396       8.227       5.448      1.2855E-02
  10    10.00       9.999       9.997       9.987       9.949       9.816       9.396       8.227       5.448      1.2855E-02
1
              HEAD IN LAYER   4 AT END OF TIME STEP  20 IN STRESS PERIOD    2
  ---------------------------------------------------------------------------

            1           2           3           4           5           6           7           8           9          10
 ........................................................................................................................
   1    10.00       9.999       9.997       9.986       9.946       9.808       9.376       8.183       5.378      1.2865E-02
   2    10.00       9.999       9.997       9.986       9.946       9.808       9.376       8.183       5.378      1.2865E-02
   3    10.00       9.999       9.997       9.986       9.946       9.808       9.376       8.183       5.378      1.2865E-02
   4    10.00       9.999       9.997       9.986       9.946       9.808       9.376       8.183       5.378      1.2865E-02
   5    10.00       9.999       9.997       9.986       9.946       9.808       9.376       8.183       5.378      1.2865E-02
   6    10.00       9.999       9.997       9.986       9.946       9.808       9.376       8.183       5.378      1.2865E-02
   7    10.00       9.999       9.997       9.986       9.946       9.808       9.376       8.183       5.378      1.2865E-02
   8    10.00       9.999       9.997       9.986       9.946       9.808       9.376       8.183       5.378      1.2865E-02
   9    10.00       9.999       9.997       9.986       9.946       9.808       9.376       8.183       5.378      1.2865E-02
  10    10.00       9.999       9.997       9.986       9.946       9.808       9.376       8.183       5.378      1.2865E-02
1
              HEAD IN LAYER   5 AT END OF TIME STEP  20 IN STRESS PERIOD    2
  ---------------------------------------------------------------------------

            1           2           3           4           5           6           7           8           9          10
 ........................................................................................................................
   1    10.00       9.999       9.996       9.985       9.945       9.804       9.365       8.161       5.343      1.2804E-02
   2    10.00       9.999       9.996       9.985       9.945       9.804       9.365       8.161       5.343      1.2804E-02
   3    10.00       9.999       9.996       9.985       9.945       9.804       9.365       8.161       5.343      1.2804E-02
   4    10.00       9.999       9.996       9.985       9.945       9.804       9.365       8.161       5.343      1.2804E-02
   5    10.00       9.999       9.996       9.985       9.945       9.804       9.365       8.161       5.343      1.2804E-02
   6    10.00       9.999       9.996       9.985       9.945       9.804       9.365       8.161       5.343      1.2804E-02
   7    10.00       9.999       9.996       9.985       9.945       9.804       9.365       8.161       5.343      1.2804E-02
   8    10.00       9.999       9.996       9.985       9.945       9.804       9.365       8.161       5.343      1.2804E-02
   9    10.00       9.999       9.996       9.985       9.945       9.804       9.365       8.161       5.343      1.2804E-02
  10    10.00       9.999       9.996       9.985       9.945       9.804       9.365       8.161       5.343      1.2804E-02

 HEAD WILL BE SAVED ON UNIT   51 AT END OF TIME STEP   20, STRESS PERIOD    2

 DRAWDOWN WILL BE SAVED ON UNIT   52 AT END OF TIME STEP   20, STRESS PERIOD    2
1
  VOLUMETRIC BUDGET FOR ENTIRE MODEL AT END OF TIME STEP   20, STRESS PERIOD   2
  ------------------------------------------------------------------------------

     CUMULATIVE VOLUMES      L**3       RATES FOR THIS TIME STEP      L**3/T
     ------------------                 ------------------------

           IN:                                      IN:
           ---                                      ---
             STORAGE =      175164.8438               STORAGE =        2782.0740
       CONSTANT HEAD =           0.0000         CONSTANT HEAD =           0.0000
               WELLS =           0.0000                 WELLS =           0.0000
     HEAD DEP BOUNDS =           1.9831       HEAD DEP BOUNDS =           0.4081

            TOTAL IN =      175166.8281              TOTAL IN =        2782.4819

          OUT:                                     OUT:
          ----                                     ----
             STORAGE =           0.0000               STORAGE =           0.0000
       CONSTANT HEAD =           0.0000         CONSTANT HEAD =           0.0000
               WELLS =           0.0000                 WELLS =           0.0000
     HEAD DEP BOUNDS =      175166.8281       HEAD DEP BOUNDS =        2782.4893

           TOTAL OUT =      175166.8281             TOTAL OUT =        2782.4893

            IN - OUT =           0.0000              IN - OUT =      -7.3242E-03

 PERCENT DISCREPANCY =           0.00     PERCENT DISCREPANCY =          -0.00






         TIME SUMMARY AT END OF TIME STEP   20 IN STRESS PERIOD    2
                    SECONDS     MINUTES      HOURS       DAYS        YEARS
                    -----------------------------------------------------------
   TIME STEP LENGTH  86400.      1440.0      24.000      1.0000     2.73785E-03
 STRESS PERIOD TIME 1.72800E+06  28800.      480.00      20.000     5.47570E-02
         TOTAL TIME 1.81440E+06  30240.      504.00      21.000     5.74949E-02
1
 
 SOLVING FOR HEAD 

 OUTPUT CONTROL FOR STRESS PERIOD    2   TIME STEP   21
    SAVE HEAD FOR ALL LAYERS
    SAVE DRAWDOWN FOR ALL LAYERS
    SAVE BUDGET
    PRINT HEAD FOR ALL LAYERS
    PRINT BUDGET
 UBDSV1 SAVING "         STORAGE" ON UNIT  53 AT TIME STEP 21, STRESS PERIOD   2
 UBDSV2 SAVING "   CONSTANT HEAD" ON UNIT  53 AT TIME STEP 21, STRESS PERIOD   2
 UBDSV1 SAVING "FLOW RIGHT FACE " ON UNIT  53 AT TIME STEP 21, STRESS PERIOD   2
 UBDSV1 SAVING "FLOW FRONT FACE " ON UNIT  53 AT TIME STEP 21, STRESS PERIOD   2
 UBDSV1 SAVING "FLOW LOWER FACE " ON UNIT  53 AT TIME STEP 21, STRESS PERIOD   2
1
              HEAD IN LAYER   1 AT END OF TIME STEP  21 IN STRESS PERIOD    2
  ---------------------------------------------------------------------------

            1           2           3           4           5           6           7           8           9          10
 ........................................................................................................................
   1    10.00       9.999       9.997       9.988       9.952       9.826       9.425       8.291       5.565      5.3101E-03
   2    10.00       9.999       9.997       9.988       9.952       9.826       9.425       8.291       5.565      5.3101E-03
   3    10.00       9.999       9.997       9.988       9.952       9.826       9.425       8.291       5.565      5.3101E-03
   4    10.00       9.999       9.997       9.988       9.952       9.826       9.425       8.291       5.565      5.3101E-03
   5    10.00       9.999       9.997       9.988       9.952       9.826       9.425       8.291       5.565      5.3101E-03
   6    10.00       9.999       9.997       9.988       9.952       9.826       9.425       8.291       5.565      5.3101E-03
   7    10.00       9.999       9.997       9.988       9.952       9.826       9.425       8.291       5.565      5.3101E-03
   8    10.00       9.999       9.997       9.988       9.952       9.826       9.425       8.291       5.565      5.3101E-03
   9    10.00       9.999       9.997       9.988       9.952       9.826       9.425       8.291       5.565      5.3101E-03
  10    10.00       9.999       9.997       9.988       9.952       9.826       9.425       8.291       5.565      5.3101E-03
1
              HEAD IN LAYER   2 AT END OF TIME STEP  21 IN STRESS PERIOD    2
  ---------------------------------------------------------------------------

            1           2           3           4           5           6           7           8           9          10
 ........................................................................................................................
   1    10.00       9.999       9.997       9.986       9.946       9.810       9.384       8.210       5.451      1.1482E-02
   2    10.00       9.999       9.997       9.986       9.946       9.810       9.384       8.210       5.451      1.1482E-02
   3    10.00       9.999       9.997       9.986       9.946       9.810       9.384       8.210       5.451      1.1482E-02
   4    10.00       9.999       9.997       9.986       9.946       9.810       9.384       8.210       5.451      1.1482E-02
   5    10.00       9.999       9.997       9.986       9.946       9.810       9.384       8.210       5.451      1.1482E-02
   6    10.00       9.999       9.997       9.986       9.946       9.810       9.384       8.210       5.451      1.1482E-02
   7    10.00       9.999       9.997       9.986       9.946       9.810       9.384       8.210       5.451      1.1482E-02
   8    10.00       9.999       9.997       9.986       9.946       9.810       9.384       8.210       5.451      1.1482E-02
   9    10.00       9.999       9.997       9.986       9.946       9.810       9.384       8.210       5.451      1.1482E-02
  10    10.00       9.999       9.997       9.986       9.946       9.810       9.384       8.210       5.451      1.1482E-02
1
              HEAD IN LAYER   3 AT END OF TIME STEP  21 IN STRESS PERIOD    2
  ---------------------------------------------------------------------------

            1           2           3           4           5           6           7           8           9          10
 ........................................................................................................................
   1    10.00       9.999       9.996       9.985       9.942       9.798       9.353       8.145       5.349      1.2620E-02
   2    10.00       9.999       9.996       9.985       9.942       9.798       9.353       8.145       5.349      1.2620E-02
   3    10.00       9.999       9.996       9.985       9.942       9.798       9.353       8.145       5.349      1.2620E-02
   4    10.00       9.999       9.996       9.985       9.942       9.798       9.353       8.145       5.349      1.2620E-02
   5    10.00       9.999       9.996       9.985       9.942       9.798       9.353       8.145       5.349      1.2620E-02
   6    10.00       9.999       9.996       9.985       9.942       9.798       9.353       8.145       5.349      1.2620E-02
   7    10.00       9.999       9.996       9.985       9.942       9.798       9.353       8.145       5.349      1.2620E-02
   8    10.00       9.999       9.996       9.985       9.942       9.798       9.353       8.145       5.349      1.2620E-02
   9    10.00       9.999       9.996       9.985       9.942       9.798       9.353       8.145       5.349      1.2620E-02
  10    10.00       9.999       9.996       9.985       9.942       9.798       9.353       8.145       5.349      1.2620E-02
1
              HEAD IN LAYER   4 AT END OF TIME STEP  21 IN STRESS PERIOD    2
  ---------------------------------------------------------------------------

            1           2           3           4           5           6           7           8           9          10
 ........................................................................................................................
   1    10.00       9.999       9.996       9.984       9.939       9.789       9.332       8.102       5.282      1.2634E-02
   2    10.00       9.999       9.996       9.984       9.939       9.789       9.332       8.102       5.282      1.2634E-02
   3    10.00       9.999       9.996       9.984       9.939       9.789       9.332       8.102       5.282      1.2634E-02
   4    10.00       9.999       9.996       9.984       9.939       9.789       9.332       8.102       5.282      1.2634E-02
   5    10.00       9.999       9.996       9.984       9.939       9.789       9.332       8.102       5.282      1.2634E-02
   6    10.00       9.999       9.996       9.984       9.939       9.789       9.332       8.102       5.282      1.2634E-02
   7    10.00       9.999       9.996       9.984       9.939       9.789       9.332       8.102       5.282      1.2634E-02
   8    10.00       9.999       9.996       9.984       9.939       9.789       9.332       8.102       5.282      1.2634E-02
   9    10.00       9.999       9.996       9.984       9.939       9.789       9.332       8.102       5.282      1.2634E-02
  10    10.00       9.999       9.996       9.984       9.939       9.789       9.332       8.102       5.282      1.2634E-02
1
              HEAD IN LAYER   5 AT END OF TIME STEP  21 IN STRESS PERIOD    2
  ---------------------------------------------------------------------------

            1           2           3           4           5           6           7           8           9          10
 ........................................................................................................................
   1    10.00       9.999       9.996       9.983       9.938       9.785       9.321       8.080       5.248      1.2576E-02
   2    10.00       9.999       9.996       9.983       9.938       9.785       9.321       8.080       5.248      1.2576E-02
   3    10.00       9.999       9.996       9.983       9.938       9.785       9.321       8.080       5.248      1.2576E-02
   4    10.00       9.999       9.996       9.983       9.938       9.785       9.321       8.080       5.248      1.2576E-02
   5    10.00       9.999       9.996       9.983       9.938       9.785       9.321       8.080       5.248      1.2576E-02
   6    10.00       9.999       9.996       9.983       9.938       9.785       9.321       8.080       5.248      1.2576E-02
   7    10.00       9.999       9.996       9.983       9.938       9.785       9.321       8.080       5.248      1.2576E-02
   8    10.00       9.999       9.996       9.983       9.938       9.785       9.321       8.080       5.248      1.2576E-02
   9    10.00       9.999       9.996       9.983       9.938       9.785       9.321       8.080       5.248      1.2576E-02
  10    10.00       9.999       9.996       9.983       9.938       9.785       9.321       8.080       5.248      1.2576E-02

 HEAD WILL BE SAVED ON UNIT   51 AT END OF TIME STEP   21, STRESS PERIOD    2

 DRAWDOWN WILL BE SAVED ON UNIT   52 AT END OF TIME STEP   21, STRESS PERIOD    2
1
  VOLUMETRIC BUDGET FOR ENTIRE MODEL AT END OF TIME STEP   21, STRESS PERIOD   2
  ------------------------------------------------------------------------------

     CUMULATIVE VOLUMES      L**3       RATES FOR THIS TIME STEP      L**3/T
     ------------------                 ------------------------

           IN:                                      IN:
           ---                                      ---
             STORAGE =      177895.4531               STORAGE =        2730.6018
       CONSTANT HEAD =           0.0000         CONSTANT HEAD =           0.0000
               WELLS =           0.0000                 WELLS =           0.0000
     HEAD DEP BOUNDS =           2.4721       HEAD DEP BOUNDS =           0.4890

            TOTAL IN =      177897.9219              TOTAL IN =        2731.0908

          OUT:                                     OUT:
          ----                                     ----
             STORAGE =           0.0000               STORAGE =           0.0000
       CONSTANT HEAD =           0.0000         CONSTANT HEAD =           0.0000
               WELLS =           0.0000                 WELLS =           0.0000
     HEAD DEP BOUNDS =      177897.9375       HEAD DEP BOUNDS =        2731.1140

           TOTAL OUT =      177897.9375             TOTAL OUT =        2731.1140

            IN - OUT =      -1.5625E-02              IN - OUT =      -2.3193E-02

 PERCENT DISCREPANCY =          -0.00     PERCENT DISCREPANCY =          -0.00






         TIME SUMMARY AT END OF TIME STEP   21 IN STRESS PERIOD    2
                    SECONDS     MINUTES      HOURS       DAYS        YEARS
                    -----------------------------------------------------------
   TIME STEP LENGTH  86400.      1440.0      24.000      1.0000     2.73785E-03
 STRESS PERIOD TIME 1.81440E+06  30240.      504.00      21.000     5.74949E-02
         TOTAL TIME 1.90080E+06  31680.      528.00      22.000     6.02327E-02
1
 
 SOLVING FOR HEAD 

 OUTPUT CONTROL FOR STRESS PERIOD    2   TIME STEP   22
    SAVE HEAD FOR ALL LAYERS
    SAVE DRAWDOWN FOR ALL LAYERS
    SAVE BUDGET
    PRINT HEAD FOR ALL LAYERS
    PRINT BUDGET
 UBDSV1 SAVING "         STORAGE" ON UNIT  53 AT TIME STEP 22, STRESS PERIOD   2
 UBDSV2 SAVING "   CONSTANT HEAD" ON UNIT  53 AT TIME STEP 22, STRESS PERIOD   2
 UBDSV1 SAVING "FLOW RIGHT FACE " ON UNIT  53 AT TIME STEP 22, STRESS PERIOD   2
 UBDSV1 SAVING "FLOW FRONT FACE " ON UNIT  53 AT TIME STEP 22, STRESS PERIOD   2
 UBDSV1 SAVING "FLOW LOWER FACE " ON UNIT  53 AT TIME STEP 22, STRESS PERIOD   2
1
              HEAD IN LAYER   1 AT END OF TIME STEP  22 IN STRESS PERIOD    2
  ---------------------------------------------------------------------------

            1           2           3           4           5           6           7           8           9          10
 ........................................................................................................................
   1    10.00       9.999       9.996       9.986       9.946       9.809       9.382       8.209       5.460      5.2030E-03
   2    10.00       9.999       9.996       9.986       9.946       9.809       9.382       8.209       5.460      5.2030E-03
   3    10.00       9.999       9.996       9.986       9.946       9.809       9.382       8.209       5.460      5.2030E-03
   4    10.00       9.999       9.996       9.986       9.946       9.809       9.382       8.209       5.460      5.2030E-03
   5    10.00       9.999       9.996       9.986       9.946       9.809       9.382       8.209       5.460      5.2030E-03
   6    10.00       9.999       9.996       9.986       9.946       9.809       9.382       8.209       5.460      5.2030E-03
   7    10.00       9.999       9.996       9.986       9.946       9.809       9.382       8.209       5.460      5.2030E-03
   8    10.00       9.999       9.996       9.986       9.946       9.809       9.382       8.209       5.460      5.2030E-03
   9    10.00       9.999       9.996       9.986       9.946       9.809       9.382       8.209       5.460      5.2030E-03
  10    10.00       9.999       9.996       9.986       9.946       9.809       9.382       8.209       5.460      5.2030E-03
1
              HEAD IN LAYER   2 AT END OF TIME STEP  22 IN STRESS PERIOD    2
  ---------------------------------------------------------------------------

            1           2           3           4           5           6           7           8           9          10
 ........................................................................................................................
   1    10.00       9.999       9.996       9.984       9.940       9.792       9.341       8.129       5.352      1.1272E-02
   2    10.00       9.999       9.996       9.984       9.940       9.792       9.341       8.129       5.352      1.1272E-02
   3    10.00       9.999       9.996       9.984       9.940       9.792       9.341       8.129       5.352      1.1272E-02
   4    10.00       9.999       9.996       9.984       9.940       9.792       9.341       8.129       5.352      1.1272E-02
   5    10.00       9.999       9.996       9.984       9.940       9.792       9.341       8.129       5.352      1.1272E-02
   6    10.00       9.999       9.996       9.984       9.940       9.792       9.341       8.129       5.352      1.1272E-02
   7    10.00       9.999       9.996       9.984       9.940       9.792       9.341       8.129       5.352      1.1272E-02
   8    10.00       9.999       9.996       9.984       9.940       9.792       9.341       8.129       5.352      1.1272E-02
   9    10.00       9.999       9.996       9.984       9.940       9.792       9.341       8.129       5.352      1.1272E-02
  10    10.00       9.999       9.996       9.984       9.940       9.792       9.341       8.129       5.352      1.1272E-02
1
              HEAD IN LAYER   3 AT END OF TIME STEP  22 IN STRESS PERIOD    2
  ---------------------------------------------------------------------------

            1           2           3           4           5           6           7           8           9          10
 ........................................................................................................................
   1    10.00       9.999       9.996       9.982       9.935       9.779       9.309       8.065       5.254      1.2396E-02
   2    10.00       9.999       9.996       9.982       9.935       9.779       9.309       8.065       5.254      1.2396E-02
   3    10.00       9.999       9.996       9.982       9.935       9.779       9.309       8.065       5.254      1.2396E-02
   4    10.00       9.999       9.996       9.982       9.935       9.779       9.309       8.065       5.254      1.2396E-02
   5    10.00       9.999       9.996       9.982       9.935       9.779       9.309       8.065       5.254      1.2396E-02
   6    10.00       9.999       9.996       9.982       9.935       9.779       9.309       8.065       5.254      1.2396E-02
   7    10.00       9.999       9.996       9.982       9.935       9.779       9.309       8.065       5.254      1.2396E-02
   8    10.00       9.999       9.996       9.982       9.935       9.779       9.309       8.065       5.254      1.2396E-02
   9    10.00       9.999       9.996       9.982       9.935       9.779       9.309       8.065       5.254      1.2396E-02
  10    10.00       9.999       9.996       9.982       9.935       9.779       9.309       8.065       5.254      1.2396E-02
1
              HEAD IN LAYER   4 AT END OF TIME STEP  22 IN STRESS PERIOD    2
  ---------------------------------------------------------------------------

            1           2           3           4           5           6           7           8           9          10
 ........................................................................................................................
   1    10.00       9.999       9.995       9.982       9.932       9.770       9.288       8.022       5.190      1.2414E-02
   2    10.00       9.999       9.995       9.982       9.932       9.770       9.288       8.022       5.190      1.2414E-02
   3    10.00       9.999       9.995       9.982       9.932       9.770       9.288       8.022       5.190      1.2414E-02
   4    10.00       9.999       9.995       9.982       9.932       9.770       9.288       8.022       5.190      1.2414E-02
   5    10.00       9.999       9.995       9.982       9.932       9.770       9.288       8.022       5.190      1.2414E-02
   6    10.00       9.999       9.995       9.982       9.932       9.770       9.288       8.022       5.190      1.2414E-02
   7    10.00       9.999       9.995       9.982       9.932       9.770       9.288       8.022       5.190      1.2414E-02
   8    10.00       9.999       9.995       9.982       9.932       9.770       9.288       8.022       5.190      1.2414E-02
   9    10.00       9.999       9.995       9.982       9.932       9.770       9.288       8.022       5.190      1.2414E-02
  10    10.00       9.999       9.995       9.982       9.932       9.770       9.288       8.022       5.190      1.2414E-02
1
              HEAD IN LAYER   5 AT END OF TIME STEP  22 IN STRESS PERIOD    2
  ---------------------------------------------------------------------------

            1           2           3           4           5           6           7           8           9          10
 ........................................................................................................................
   1    10.00       9.999       9.995       9.981       9.931       9.766       9.277       8.001       5.158      1.2359E-02
   2    10.00       9.999       9.995       9.981       9.931       9.766       9.277       8.001       5.158      1.2359E-02
   3    10.00       9.999       9.995       9.981       9.931       9.766       9.277       8.001       5.158      1.2359E-02
   4    10.00       9.999       9.995       9.981       9.931       9.766       9.277       8.001       5.158      1.2359E-02
   5    10.00       9.999       9.995       9.981       9.931       9.766       9.277       8.001       5.158      1.2359E-02
   6    10.00       9.999       9.995       9.981       9.931       9.766       9.277       8.001       5.158      1.2359E-02
   7    10.00       9.999       9.995       9.981       9.931       9.766       9.277       8.001       5.158      1.2359E-02
   8    10.00       9.999       9.995       9.981       9.931       9.766       9.277       8.001       5.158      1.2359E-02
   9    10.00       9.999       9.995       9.981       9.931       9.766       9.277       8.001       5.158      1.2359E-02
  10    10.00       9.999       9.995       9.981       9.931       9.766       9.277       8.001       5.158      1.2359E-02

 HEAD WILL BE SAVED ON UNIT   51 AT END OF TIME STEP   22, STRESS PERIOD    2

 DRAWDOWN WILL BE SAVED ON UNIT   52 AT END OF TIME STEP   22, STRESS PERIOD    2
1
  VOLUMETRIC BUDGET FOR ENTIRE MODEL AT END OF TIME STEP   22, STRESS PERIOD   2
  ------------------------------------------------------------------------------

     CUMULATIVE VOLUMES      L**3       RATES FOR THIS TIME STEP      L**3/T
     ------------------                 ------------------------

           IN:                                      IN:
           ---                                      ---
             STORAGE =      180576.9688               STORAGE =        2681.5212
       CONSTANT HEAD =           0.0000         CONSTANT HEAD =           0.0000
               WELLS =           0.0000                 WELLS =           0.0000
     HEAD DEP BOUNDS =           3.0535       HEAD DEP BOUNDS =           0.5814

            TOTAL IN =      180580.0156              TOTAL IN =        2682.1025

          OUT:                                     OUT:
          ----                                     ----
             STORAGE =           0.0000               STORAGE =           0.0000
       CONSTANT HEAD =           0.0000         CONSTANT HEAD =           0.0000
               WELLS =           0.0000                 WELLS =           0.0000
     HEAD DEP BOUNDS =      180580.0469       HEAD DEP BOUNDS =        2682.1147

           TOTAL OUT =      180580.0469             TOTAL OUT =        2682.1147

            IN - OUT =      -3.1250E-02              IN - OUT =      -1.2207E-02

 PERCENT DISCREPANCY =          -0.00     PERCENT DISCREPANCY =          -0.00






         TIME SUMMARY AT END OF TIME STEP   22 IN STRESS PERIOD    2
                    SECONDS     MINUTES      HOURS       DAYS        YEARS
                    -----------------------------------------------------------
   TIME STEP LENGTH  86400.      1440.0      24.000      1.0000     2.73785E-03
 STRESS PERIOD TIME 1.90080E+06  31680.      528.00      22.000     6.02327E-02
         TOTAL TIME 1.98720E+06  33120.      552.00      23.000     6.29706E-02
1
 
 SOLVING FOR HEAD 

 OUTPUT CONTROL FOR STRESS PERIOD    2   TIME STEP   23
    SAVE HEAD FOR ALL LAYERS
    SAVE DRAWDOWN FOR ALL LAYERS
    SAVE BUDGET
    PRINT HEAD FOR ALL LAYERS
    PRINT BUDGET
 UBDSV1 SAVING "         STORAGE" ON UNIT  53 AT TIME STEP 23, STRESS PERIOD   2
 UBDSV2 SAVING "   CONSTANT HEAD" ON UNIT  53 AT TIME STEP 23, STRESS PERIOD   2
 UBDSV1 SAVING "FLOW RIGHT FACE " ON UNIT  53 AT TIME STEP 23, STRESS PERIOD   2
 UBDSV1 SAVING "FLOW FRONT FACE " ON UNIT  53 AT TIME STEP 23, STRESS PERIOD   2
 UBDSV1 SAVING "FLOW LOWER FACE " ON UNIT  53 AT TIME STEP 23, STRESS PERIOD   2
1
              HEAD IN LAYER   1 AT END OF TIME STEP  23 IN STRESS PERIOD    2
  ---------------------------------------------------------------------------

            1           2           3           4           5           6           7           8           9          10
 ........................................................................................................................
   1    10.00       9.999       9.996       9.984       9.939       9.791       9.339       8.128       5.360      5.1009E-03
   2    10.00       9.999       9.996       9.984       9.939       9.791       9.339       8.128       5.360      5.1009E-03
   3    10.00       9.999       9.996       9.984       9.939       9.791       9.339       8.128       5.360      5.1009E-03
   4    10.00       9.999       9.996       9.984       9.939       9.791       9.339       8.128       5.360      5.1009E-03
   5    10.00       9.999       9.996       9.984       9.939       9.791       9.339       8.128       5.360      5.1009E-03
   6    10.00       9.999       9.996       9.984       9.939       9.791       9.339       8.128       5.360      5.1009E-03
   7    10.00       9.999       9.996       9.984       9.939       9.791       9.339       8.128       5.360      5.1009E-03
   8    10.00       9.999       9.996       9.984       9.939       9.791       9.339       8.128       5.360      5.1009E-03
   9    10.00       9.999       9.996       9.984       9.939       9.791       9.339       8.128       5.360      5.1009E-03
  10    10.00       9.999       9.996       9.984       9.939       9.791       9.339       8.128       5.360      5.1009E-03
1
              HEAD IN LAYER   2 AT END OF TIME STEP  23 IN STRESS PERIOD    2
  ---------------------------------------------------------------------------

            1           2           3           4           5           6           7           8           9          10
 ........................................................................................................................
   1    10.00       9.999       9.995       9.982       9.933       9.773       9.297       8.050       5.257      1.1071E-02
   2    10.00       9.999       9.995       9.982       9.933       9.773       9.297       8.050       5.257      1.1071E-02
   3    10.00       9.999       9.995       9.982       9.933       9.773       9.297       8.050       5.257      1.1071E-02
   4    10.00       9.999       9.995       9.982       9.933       9.773       9.297       8.050       5.257      1.1071E-02
   5    10.00       9.999       9.995       9.982       9.933       9.773       9.297       8.050       5.257      1.1071E-02
   6    10.00       9.999       9.995       9.982       9.933       9.773       9.297       8.050       5.257      1.1071E-02
   7    10.00       9.999       9.995       9.982       9.933       9.773       9.297       8.050       5.257      1.1071E-02
   8    10.00       9.999       9.995       9.982       9.933       9.773       9.297       8.050       5.257      1.1071E-02
   9    10.00       9.999       9.995       9.982       9.933       9.773       9.297       8.050       5.257      1.1071E-02
  10    10.00       9.999       9.995       9.982       9.933       9.773       9.297       8.050       5.257      1.1071E-02
1
              HEAD IN LAYER   3 AT END OF TIME STEP  23 IN STRESS PERIOD    2
  ---------------------------------------------------------------------------

            1           2           3           4           5           6           7           8           9          10
 ........................................................................................................................
   1    10.00       9.999       9.995       9.980       9.928       9.760       9.265       7.987       5.163      1.2181E-02
   2    10.00       9.999       9.995       9.980       9.928       9.760       9.265       7.987       5.163      1.2181E-02
   3    10.00       9.999       9.995       9.980       9.928       9.760       9.265       7.987       5.163      1.2181E-02
   4    10.00       9.999       9.995       9.980       9.928       9.760       9.265       7.987       5.163      1.2181E-02
   5    10.00       9.999       9.995       9.980       9.928       9.760       9.265       7.987       5.163      1.2181E-02
   6    10.00       9.999       9.995       9.980       9.928       9.760       9.265       7.987       5.163      1.2181E-02
   7    10.00       9.999       9.995       9.980       9.928       9.760       9.265       7.987       5.163      1.2181E-02
   8    10.00       9.999       9.995       9.980       9.928       9.760       9.265       7.987       5.163      1.2181E-02
   9    10.00       9.999       9.995       9.980       9.928       9.760       9.265       7.987       5.163      1.2181E-02
  10    10.00       9.999       9.995       9.980       9.928       9.760       9.265       7.987       5.163      1.2181E-02
1
              HEAD IN LAYER   4 AT END OF TIME STEP  23 IN STRESS PERIOD    2
  ---------------------------------------------------------------------------

            1           2           3           4           5           6           7           8           9          10
 ........................................................................................................................
   1    10.00       9.999       9.995       9.979       9.925       9.751       9.243       7.944       5.102      1.2203E-02
   2    10.00       9.999       9.995       9.979       9.925       9.751       9.243       7.944       5.102      1.2203E-02
   3    10.00       9.999       9.995       9.979       9.925       9.751       9.243       7.944       5.102      1.2203E-02
   4    10.00       9.999       9.995       9.979       9.925       9.751       9.243       7.944       5.102      1.2203E-02
   5    10.00       9.999       9.995       9.979       9.925       9.751       9.243       7.944       5.102      1.2203E-02
   6    10.00       9.999       9.995       9.979       9.925       9.751       9.243       7.944       5.102      1.2203E-02
   7    10.00       9.999       9.995       9.979       9.925       9.751       9.243       7.944       5.102      1.2203E-02
   8    10.00       9.999       9.995       9.979       9.925       9.751       9.243       7.944       5.102      1.2203E-02
   9    10.00       9.999       9.995       9.979       9.925       9.751       9.243       7.944       5.102      1.2203E-02
  10    10.00       9.999       9.995       9.979       9.925       9.751       9.243       7.944       5.102      1.2203E-02
1
              HEAD IN LAYER   5 AT END OF TIME STEP  23 IN STRESS PERIOD    2
  ---------------------------------------------------------------------------

            1           2           3           4           5           6           7           8           9          10
 ........................................................................................................................
   1    10.00       9.999       9.994       9.979       9.923       9.746       9.233       7.923       5.071      1.2151E-02
   2    10.00       9.999       9.994       9.979       9.923       9.746       9.233       7.923       5.071      1.2151E-02
   3    10.00       9.999       9.994       9.979       9.923       9.746       9.233       7.923       5.071      1.2151E-02
   4    10.00       9.999       9.994       9.979       9.923       9.746       9.233       7.923       5.071      1.2151E-02
   5    10.00       9.999       9.994       9.979       9.923       9.746       9.233       7.923       5.071      1.2151E-02
   6    10.00       9.999       9.994       9.979       9.923       9.746       9.233       7.923       5.071      1.2151E-02
   7    10.00       9.999       9.994       9.979       9.923       9.746       9.233       7.923       5.071      1.2151E-02
   8    10.00       9.999       9.994       9.979       9.923       9.746       9.233       7.923       5.071      1.2151E-02
   9    10.00       9.999       9.994       9.979       9.923       9.746       9.233       7.923       5.071      1.2151E-02
  10    10.00       9.999       9.994       9.979       9.923       9.746       9.233       7.923       5.071      1.2151E-02

 HEAD WILL BE SAVED ON UNIT   51 AT END OF TIME STEP   23, STRESS PERIOD    2

 DRAWDOWN WILL BE SAVED ON UNIT   52 AT END OF TIME STEP   23, STRESS PERIOD    2
1
  VOLUMETRIC BUDGET FOR ENTIRE MODEL AT END OF TIME STEP   23, STRESS PERIOD   2
  ------------------------------------------------------------------------------

     CUMULATIVE VOLUMES      L**3       RATES FOR THIS TIME STEP      L**3/T
     ------------------                 ------------------------

           IN:                                      IN:
           ---                                      ---
             STORAGE =      183211.5781               STORAGE =        2634.6028
       CONSTANT HEAD =           0.0000         CONSTANT HEAD =           0.0000
               WELLS =           0.0000                 WELLS =           0.0000
     HEAD DEP BOUNDS =           3.7393       HEAD DEP BOUNDS =           0.6858

            TOTAL IN =      183215.3125              TOTAL IN =        2635.2886

          OUT:                                     OUT:
          ----                                     ----
             STORAGE =           0.0000               STORAGE =           0.0000
       CONSTANT HEAD =           0.0000         CONSTANT HEAD =           0.0000
               WELLS =           0.0000                 WELLS =           0.0000
     HEAD DEP BOUNDS =      183215.3750       HEAD DEP BOUNDS =        2635.3206

           TOTAL OUT =      183215.3750             TOTAL OUT =        2635.3206

            IN - OUT =      -6.2500E-02              IN - OUT =      -3.1982E-02

 PERCENT DISCREPANCY =          -0.00     PERCENT DISCREPANCY =          -0.00






         TIME SUMMARY AT END OF TIME STEP   23 IN STRESS PERIOD    2
                    SECONDS     MINUTES      HOURS       DAYS        YEARS
                    -----------------------------------------------------------
   TIME STEP LENGTH  86400.      1440.0      24.000      1.0000     2.73785E-03
 STRESS PERIOD TIME 1.98720E+06  33120.      552.00      23.000     6.29706E-02
         TOTAL TIME 2.07360E+06  34560.      576.00      24.000     6.57084E-02
1
 
 SOLVING FOR HEAD 

 OUTPUT CONTROL FOR STRESS PERIOD    2   TIME STEP   24
    SAVE HEAD FOR ALL LAYERS
    SAVE DRAWDOWN FOR ALL LAYERS
    SAVE BUDGET
    PRINT HEAD FOR ALL LAYERS
    PRINT BUDGET
 UBDSV1 SAVING "         STORAGE" ON UNIT  53 AT TIME STEP 24, STRESS PERIOD   2
 UBDSV2 SAVING "   CONSTANT HEAD" ON UNIT  53 AT TIME STEP 24, STRESS PERIOD   2
 UBDSV1 SAVING "FLOW RIGHT FACE " ON UNIT  53 AT TIME STEP 24, STRESS PERIOD   2
 UBDSV1 SAVING "FLOW FRONT FACE " ON UNIT  53 AT TIME STEP 24, STRESS PERIOD   2
 UBDSV1 SAVING "FLOW LOWER FACE " ON UNIT  53 AT TIME STEP 24, STRESS PERIOD   2
1
              HEAD IN LAYER   1 AT END OF TIME STEP  24 IN STRESS PERIOD    2
  ---------------------------------------------------------------------------

            1           2           3           4           5           6           7           8           9          10
 ........................................................................................................................
   1    10.00       9.999       9.995       9.981       9.932       9.772       9.295       8.048       5.265      5.0037E-03
   2    10.00       9.999       9.995       9.981       9.932       9.772       9.295       8.048       5.265      5.0037E-03
   3    10.00       9.999       9.995       9.981       9.932       9.772       9.295       8.048       5.265      5.0037E-03
   4    10.00       9.999       9.995       9.981       9.932       9.772       9.295       8.048       5.265      5.0037E-03
   5    10.00       9.999       9.995       9.981       9.932       9.772       9.295       8.048       5.265      5.0037E-03
   6    10.00       9.999       9.995       9.981       9.932       9.772       9.295       8.048       5.265      5.0037E-03
   7    10.00       9.999       9.995       9.981       9.932       9.772       9.295       8.048       5.265      5.0037E-03
   8    10.00       9.999       9.995       9.981       9.932       9.772       9.295       8.048       5.265      5.0037E-03
   9    10.00       9.999       9.995       9.981       9.932       9.772       9.295       8.048       5.265      5.0037E-03
  10    10.00       9.999       9.995       9.981       9.932       9.772       9.295       8.048       5.265      5.0037E-03
1
              HEAD IN LAYER   2 AT END OF TIME STEP  24 IN STRESS PERIOD    2
  ---------------------------------------------------------------------------

            1           2           3           4           5           6           7           8           9          10
 ........................................................................................................................
   1    10.00       9.999       9.995       9.979       9.926       9.753       9.253       7.972       5.167      1.0879E-02
   2    10.00       9.999       9.995       9.979       9.926       9.753       9.253       7.972       5.167      1.0879E-02
   3    10.00       9.999       9.995       9.979       9.926       9.753       9.253       7.972       5.167      1.0879E-02
   4    10.00       9.999       9.995       9.979       9.926       9.753       9.253       7.972       5.167      1.0879E-02
   5    10.00       9.999       9.995       9.979       9.926       9.753       9.253       7.972       5.167      1.0879E-02
   6    10.00       9.999       9.995       9.979       9.926       9.753       9.253       7.972       5.167      1.0879E-02
   7    10.00       9.999       9.995       9.979       9.926       9.753       9.253       7.972       5.167      1.0879E-02
   8    10.00       9.999       9.995       9.979       9.926       9.753       9.253       7.972       5.167      1.0879E-02
   9    10.00       9.999       9.995       9.979       9.926       9.753       9.253       7.972       5.167      1.0879E-02
  10    10.00       9.999       9.995       9.979       9.926       9.753       9.253       7.972       5.167      1.0879E-02
1
              HEAD IN LAYER   3 AT END OF TIME STEP  24 IN STRESS PERIOD    2
  ---------------------------------------------------------------------------

            1           2           3           4           5           6           7           8           9          10
 ........................................................................................................................
   1    10.00       9.999       9.994       9.978       9.921       9.740       9.221       7.909       5.077      1.1977E-02
   2    10.00       9.999       9.994       9.978       9.921       9.740       9.221       7.909       5.077      1.1977E-02
   3    10.00       9.999       9.994       9.978       9.921       9.740       9.221       7.909       5.077      1.1977E-02
   4    10.00       9.999       9.994       9.978       9.921       9.740       9.221       7.909       5.077      1.1977E-02
   5    10.00       9.999       9.994       9.978       9.921       9.740       9.221       7.909       5.077      1.1977E-02
   6    10.00       9.999       9.994       9.978       9.921       9.740       9.221       7.909       5.077      1.1977E-02
   7    10.00       9.999       9.994       9.978       9.921       9.740       9.221       7.909       5.077      1.1977E-02
   8    10.00       9.999       9.994       9.978       9.921       9.740       9.221       7.909       5.077      1.1977E-02
   9    10.00       9.999       9.994       9.978       9.921       9.740       9.221       7.909       5.077      1.1977E-02
  10    10.00       9.999       9.994       9.978       9.921       9.740       9.221       7.909       5.077      1.1977E-02
1
              HEAD IN LAYER   4 AT END OF TIME STEP  24 IN STRESS PERIOD    2
  ---------------------------------------------------------------------------

            1           2           3           4           5           6           7           8           9          10
 ........................................................................................................................
   1    10.00       9.998       9.994       9.976       9.917       9.730       9.199       7.868       5.017      1.2001E-02
   2    10.00       9.998       9.994       9.976       9.917       9.730       9.199       7.868       5.017      1.2001E-02
   3    10.00       9.998       9.994       9.976       9.917       9.730       9.199       7.868       5.017      1.2001E-02
   4    10.00       9.998       9.994       9.976       9.917       9.730       9.199       7.868       5.017      1.2001E-02
   5    10.00       9.998       9.994       9.976       9.917       9.730       9.199       7.868       5.017      1.2001E-02
   6    10.00       9.998       9.994       9.976       9.917       9.730       9.199       7.868       5.017      1.2001E-02
   7    10.00       9.998       9.994       9.976       9.917       9.730       9.199       7.868       5.017      1.2001E-02
   8    10.00       9.998       9.994       9.976       9.917       9.730       9.199       7.868       5.017      1.2001E-02
   9    10.00       9.998       9.994       9.976       9.917       9.730       9.199       7.868       5.017      1.2001E-02
  10    10.00       9.998       9.994       9.976       9.917       9.730       9.199       7.868       5.017      1.2001E-02
1
              HEAD IN LAYER   5 AT END OF TIME STEP  24 IN STRESS PERIOD    2
  ---------------------------------------------------------------------------

            1           2           3           4           5           6           7           8           9          10
 ........................................................................................................................
   1    10.00       9.998       9.994       9.976       9.915       9.725       9.188       7.847       4.988      1.1952E-02
   2    10.00       9.998       9.994       9.976       9.915       9.725       9.188       7.847       4.988      1.1952E-02
   3    10.00       9.998       9.994       9.976       9.915       9.725       9.188       7.847       4.988      1.1952E-02
   4    10.00       9.998       9.994       9.976       9.915       9.725       9.188       7.847       4.988      1.1952E-02
   5    10.00       9.998       9.994       9.976       9.915       9.725       9.188       7.847       4.988      1.1952E-02
   6    10.00       9.998       9.994       9.976       9.915       9.725       9.188       7.847       4.988      1.1952E-02
   7    10.00       9.998       9.994       9.976       9.915       9.725       9.188       7.847       4.988      1.1952E-02
   8    10.00       9.998       9.994       9.976       9.915       9.725       9.188       7.847       4.988      1.1952E-02
   9    10.00       9.998       9.994       9.976       9.915       9.725       9.188       7.847       4.988      1.1952E-02
  10    10.00       9.998       9.994       9.976       9.915       9.725       9.188       7.847       4.988      1.1952E-02

 HEAD WILL BE SAVED ON UNIT   51 AT END OF TIME STEP   24, STRESS PERIOD    2

 DRAWDOWN WILL BE SAVED ON UNIT   52 AT END OF TIME STEP   24, STRESS PERIOD    2
1
  VOLUMETRIC BUDGET FOR ENTIRE MODEL AT END OF TIME STEP   24, STRESS PERIOD   2
  ------------------------------------------------------------------------------

     CUMULATIVE VOLUMES      L**3       RATES FOR THIS TIME STEP      L**3/T
     ------------------                 ------------------------

           IN:                                      IN:
           ---                                      ---
             STORAGE =      185801.3750               STORAGE =        2589.7900
       CONSTANT HEAD =           0.0000         CONSTANT HEAD =           0.0000
               WELLS =           0.0000                 WELLS =           0.0000
     HEAD DEP BOUNDS =           4.5430       HEAD DEP BOUNDS =           0.8037

            TOTAL IN =      185805.9219              TOTAL IN =        2590.5938

          OUT:                                     OUT:
          ----                                     ----
             STORAGE =           0.0000               STORAGE =           0.0000
       CONSTANT HEAD =           0.0000         CONSTANT HEAD =           0.0000
               WELLS =           0.0000                 WELLS =           0.0000
     HEAD DEP BOUNDS =      185805.9844       HEAD DEP BOUNDS =        2590.6018

           TOTAL OUT =      185805.9844             TOTAL OUT =        2590.6018

            IN - OUT =      -6.2500E-02              IN - OUT =      -8.0566E-03

 PERCENT DISCREPANCY =          -0.00     PERCENT DISCREPANCY =          -0.00






         TIME SUMMARY AT END OF TIME STEP   24 IN STRESS PERIOD    2
                    SECONDS     MINUTES      HOURS       DAYS        YEARS
                    -----------------------------------------------------------
   TIME STEP LENGTH  86400.      1440.0      24.000      1.0000     2.73785E-03
 STRESS PERIOD TIME 2.07360E+06  34560.      576.00      24.000     6.57084E-02
         TOTAL TIME 2.16000E+06  36000.      600.00      25.000     6.84463E-02
1
 
 SOLVING FOR HEAD 

 OUTPUT CONTROL FOR STRESS PERIOD    2   TIME STEP   25
    SAVE HEAD FOR ALL LAYERS
    SAVE DRAWDOWN FOR ALL LAYERS
    SAVE BUDGET
    PRINT HEAD FOR ALL LAYERS
    PRINT BUDGET
 UBDSV1 SAVING "         STORAGE" ON UNIT  53 AT TIME STEP 25, STRESS PERIOD   2
 UBDSV2 SAVING "   CONSTANT HEAD" ON UNIT  53 AT TIME STEP 25, STRESS PERIOD   2
 UBDSV1 SAVING "FLOW RIGHT FACE " ON UNIT  53 AT TIME STEP 25, STRESS PERIOD   2
 UBDSV1 SAVING "FLOW FRONT FACE " ON UNIT  53 AT TIME STEP 25, STRESS PERIOD   2
 UBDSV1 SAVING "FLOW LOWER FACE " ON UNIT  53 AT TIME STEP 25, STRESS PERIOD   2
1
              HEAD IN LAYER   1 AT END OF TIME STEP  25 IN STRESS PERIOD    2
  ---------------------------------------------------------------------------

            1           2           3           4           5           6           7           8           9          10
 ........................................................................................................................
   1    10.00       9.999       9.994       9.979       9.925       9.752       9.251       7.970       5.174      4.9108E-03
   2    10.00       9.999       9.994       9.979       9.925       9.752       9.251       7.970       5.174      4.9108E-03
   3    10.00       9.999       9.994       9.979       9.925       9.752       9.251       7.970       5.174      4.9108E-03
   4    10.00       9.999       9.994       9.979       9.925       9.752       9.251       7.970       5.174      4.9108E-03
   5    10.00       9.999       9.994       9.979       9.925       9.752       9.251       7.970       5.174      4.9108E-03
   6    10.00       9.999       9.994       9.979       9.925       9.752       9.251       7.970       5.174      4.9108E-03
   7    10.00       9.999       9.994       9.979       9.925       9.752       9.251       7.970       5.174      4.9108E-03
   8    10.00       9.999       9.994       9.979       9.925       9.752       9.251       7.970       5.174      4.9108E-03
   9    10.00       9.999       9.994       9.979       9.925       9.752       9.251       7.970       5.174      4.9108E-03
  10    10.00       9.999       9.994       9.979       9.925       9.752       9.251       7.970       5.174      4.9108E-03
1
              HEAD IN LAYER   2 AT END OF TIME STEP  25 IN STRESS PERIOD    2
  ---------------------------------------------------------------------------

            1           2           3           4           5           6           7           8           9          10
 ........................................................................................................................
   1    10.00       9.998       9.994       9.977       9.918       9.733       9.209       7.895       5.080      1.0696E-02
   2    10.00       9.998       9.994       9.977       9.918       9.733       9.209       7.895       5.080      1.0696E-02
   3    10.00       9.998       9.994       9.977       9.918       9.733       9.209       7.895       5.080      1.0696E-02
   4    10.00       9.998       9.994       9.977       9.918       9.733       9.209       7.895       5.080      1.0696E-02
   5    10.00       9.998       9.994       9.977       9.918       9.733       9.209       7.895       5.080      1.0696E-02
   6    10.00       9.998       9.994       9.977       9.918       9.733       9.209       7.895       5.080      1.0696E-02
   7    10.00       9.998       9.994       9.977       9.918       9.733       9.209       7.895       5.080      1.0696E-02
   8    10.00       9.998       9.994       9.977       9.918       9.733       9.209       7.895       5.080      1.0696E-02
   9    10.00       9.998       9.994       9.977       9.918       9.733       9.209       7.895       5.080      1.0696E-02
  10    10.00       9.998       9.994       9.977       9.918       9.733       9.209       7.895       5.080      1.0696E-02
1
              HEAD IN LAYER   3 AT END OF TIME STEP  25 IN STRESS PERIOD    2
  ---------------------------------------------------------------------------

            1           2           3           4           5           6           7           8           9          10
 ........................................................................................................................
   1    10.00       9.998       9.993       9.975       9.912       9.719       9.176       7.834       4.994      1.1781E-02
   2    10.00       9.998       9.993       9.975       9.912       9.719       9.176       7.834       4.994      1.1781E-02
   3    10.00       9.998       9.993       9.975       9.912       9.719       9.176       7.834       4.994      1.1781E-02
   4    10.00       9.998       9.993       9.975       9.912       9.719       9.176       7.834       4.994      1.1781E-02
   5    10.00       9.998       9.993       9.975       9.912       9.719       9.176       7.834       4.994      1.1781E-02
   6    10.00       9.998       9.993       9.975       9.912       9.719       9.176       7.834       4.994      1.1781E-02
   7    10.00       9.998       9.993       9.975       9.912       9.719       9.176       7.834       4.994      1.1781E-02
   8    10.00       9.998       9.993       9.975       9.912       9.719       9.176       7.834       4.994      1.1781E-02
   9    10.00       9.998       9.993       9.975       9.912       9.719       9.176       7.834       4.994      1.1781E-02
  10    10.00       9.998       9.993       9.975       9.912       9.719       9.176       7.834       4.994      1.1781E-02
1
              HEAD IN LAYER   4 AT END OF TIME STEP  25 IN STRESS PERIOD    2
  ---------------------------------------------------------------------------

            1           2           3           4           5           6           7           8           9          10
 ........................................................................................................................
   1    10.00       9.998       9.993       9.974       9.909       9.709       9.154       7.793       4.937      1.1808E-02
   2    10.00       9.998       9.993       9.974       9.909       9.709       9.154       7.793       4.937      1.1808E-02
   3    10.00       9.998       9.993       9.974       9.909       9.709       9.154       7.793       4.937      1.1808E-02
   4    10.00       9.998       9.993       9.974       9.909       9.709       9.154       7.793       4.937      1.1808E-02
   5    10.00       9.998       9.993       9.974       9.909       9.709       9.154       7.793       4.937      1.1808E-02
   6    10.00       9.998       9.993       9.974       9.909       9.709       9.154       7.793       4.937      1.1808E-02
   7    10.00       9.998       9.993       9.974       9.909       9.709       9.154       7.793       4.937      1.1808E-02
   8    10.00       9.998       9.993       9.974       9.909       9.709       9.154       7.793       4.937      1.1808E-02
   9    10.00       9.998       9.993       9.974       9.909       9.709       9.154       7.793       4.937      1.1808E-02
  10    10.00       9.998       9.993       9.974       9.909       9.709       9.154       7.793       4.937      1.1808E-02
1
              HEAD IN LAYER   5 AT END OF TIME STEP  25 IN STRESS PERIOD    2
  ---------------------------------------------------------------------------

            1           2           3           4           5           6           7           8           9          10
 ........................................................................................................................
   1    10.00       9.998       9.993       9.973       9.907       9.704       9.143       7.773       4.909      1.1761E-02
   2    10.00       9.998       9.993       9.973       9.907       9.704       9.143       7.773       4.909      1.1761E-02
   3    10.00       9.998       9.993       9.973       9.907       9.704       9.143       7.773       4.909      1.1761E-02
   4    10.00       9.998       9.993       9.973       9.907       9.704       9.143       7.773       4.909      1.1761E-02
   5    10.00       9.998       9.993       9.973       9.907       9.704       9.143       7.773       4.909      1.1761E-02
   6    10.00       9.998       9.993       9.973       9.907       9.704       9.143       7.773       4.909      1.1761E-02
   7    10.00       9.998       9.993       9.973       9.907       9.704       9.143       7.773       4.909      1.1761E-02
   8    10.00       9.998       9.993       9.973       9.907       9.704       9.143       7.773       4.909      1.1761E-02
   9    10.00       9.998       9.993       9.973       9.907       9.704       9.143       7.773       4.909      1.1761E-02
  10    10.00       9.998       9.993       9.973       9.907       9.704       9.143       7.773       4.909      1.1761E-02

 HEAD WILL BE SAVED ON UNIT   51 AT END OF TIME STEP   25, STRESS PERIOD    2

 DRAWDOWN WILL BE SAVED ON UNIT   52 AT END OF TIME STEP   25, STRESS PERIOD    2
1
  VOLUMETRIC BUDGET FOR ENTIRE MODEL AT END OF TIME STEP   25, STRESS PERIOD   2
  ------------------------------------------------------------------------------

     CUMULATIVE VOLUMES      L**3       RATES FOR THIS TIME STEP      L**3/T
     ------------------                 ------------------------

           IN:                                      IN:
           ---                                      ---
             STORAGE =      188348.2188               STORAGE =        2546.8477
       CONSTANT HEAD =           0.0000         CONSTANT HEAD =           0.0000
               WELLS =           0.0000                 WELLS =           0.0000
     HEAD DEP BOUNDS =           5.4793       HEAD DEP BOUNDS =           0.9363

            TOTAL IN =      188353.7031              TOTAL IN =        2547.7839

          OUT:                                     OUT:
          ----                                     ----
             STORAGE =           0.0000               STORAGE =           0.0000
       CONSTANT HEAD =           0.0000         CONSTANT HEAD =           0.0000
               WELLS =           0.0000                 WELLS =           0.0000
     HEAD DEP BOUNDS =      188353.7969       HEAD DEP BOUNDS =        2547.8123

           TOTAL OUT =      188353.7969             TOTAL OUT =        2547.8123

            IN - OUT =      -9.3750E-02              IN - OUT =      -2.8320E-02

 PERCENT DISCREPANCY =          -0.00     PERCENT DISCREPANCY =          -0.00






         TIME SUMMARY AT END OF TIME STEP   25 IN STRESS PERIOD    2
                    SECONDS     MINUTES      HOURS       DAYS        YEARS
                    -----------------------------------------------------------
   TIME STEP LENGTH  86400.      1440.0      24.000      1.0000     2.73785E-03
 STRESS PERIOD TIME 2.16000E+06  36000.      600.00      25.000     6.84463E-02
         TOTAL TIME 2.24640E+06  37440.      624.00      26.000     7.11841E-02
1
 
 SOLVING FOR HEAD 

 OUTPUT CONTROL FOR STRESS PERIOD    2   TIME STEP   26
    SAVE HEAD FOR ALL LAYERS
    SAVE DRAWDOWN FOR ALL LAYERS
    SAVE BUDGET
    PRINT HEAD FOR ALL LAYERS
    PRINT BUDGET
 UBDSV1 SAVING "         STORAGE" ON UNIT  53 AT TIME STEP 26, STRESS PERIOD   2
 UBDSV2 SAVING "   CONSTANT HEAD" ON UNIT  53 AT TIME STEP 26, STRESS PERIOD   2
 UBDSV1 SAVING "FLOW RIGHT FACE " ON UNIT  53 AT TIME STEP 26, STRESS PERIOD   2
 UBDSV1 SAVING "FLOW FRONT FACE " ON UNIT  53 AT TIME STEP 26, STRESS PERIOD   2
 UBDSV1 SAVING "FLOW LOWER FACE " ON UNIT  53 AT TIME STEP 26, STRESS PERIOD   2
1
              HEAD IN LAYER   1 AT END OF TIME STEP  26 IN STRESS PERIOD    2
  ---------------------------------------------------------------------------

            1           2           3           4           5           6           7           8           9          10
 ........................................................................................................................
   1    10.00       9.998       9.994       9.976       9.917       9.732       9.207       7.894       5.087      4.8220E-03
   2    10.00       9.998       9.994       9.976       9.917       9.732       9.207       7.894       5.087      4.8220E-03
   3    10.00       9.998       9.994       9.976       9.917       9.732       9.207       7.894       5.087      4.8220E-03
   4    10.00       9.998       9.994       9.976       9.917       9.732       9.207       7.894       5.087      4.8220E-03
   5    10.00       9.998       9.994       9.976       9.917       9.732       9.207       7.894       5.087      4.8220E-03
   6    10.00       9.998       9.994       9.976       9.917       9.732       9.207       7.894       5.087      4.8220E-03
   7    10.00       9.998       9.994       9.976       9.917       9.732       9.207       7.894       5.087      4.8220E-03
   8    10.00       9.998       9.994       9.976       9.917       9.732       9.207       7.894       5.087      4.8220E-03
   9    10.00       9.998       9.994       9.976       9.917       9.732       9.207       7.894       5.087      4.8220E-03
  10    10.00       9.998       9.994       9.976       9.917       9.732       9.207       7.894       5.087      4.8220E-03
1
              HEAD IN LAYER   2 AT END OF TIME STEP  26 IN STRESS PERIOD    2
  ---------------------------------------------------------------------------

            1           2           3           4           5           6           7           8           9          10
 ........................................................................................................................
   1    10.00       9.998       9.993       9.974       9.910       9.713       9.164       7.820       4.997      1.0520E-02
   2    10.00       9.998       9.993       9.974       9.910       9.713       9.164       7.820       4.997      1.0520E-02
   3    10.00       9.998       9.993       9.974       9.910       9.713       9.164       7.820       4.997      1.0520E-02
   4    10.00       9.998       9.993       9.974       9.910       9.713       9.164       7.820       4.997      1.0520E-02
   5    10.00       9.998       9.993       9.974       9.910       9.713       9.164       7.820       4.997      1.0520E-02
   6    10.00       9.998       9.993       9.974       9.910       9.713       9.164       7.820       4.997      1.0520E-02
   7    10.00       9.998       9.993       9.974       9.910       9.713       9.164       7.820       4.997      1.0520E-02
   8    10.00       9.998       9.993       9.974       9.910       9.713       9.164       7.820       4.997      1.0520E-02
   9    10.00       9.998       9.993       9.974       9.910       9.713       9.164       7.820       4.997      1.0520E-02
  10    10.00       9.998       9.993       9.974       9.910       9.713       9.164       7.820       4.997      1.0520E-02
1
              HEAD IN LAYER   3 AT END OF TIME STEP  26 IN STRESS PERIOD    2
  ---------------------------------------------------------------------------

            1           2           3           4           5           6           7           8           9          10
 ........................................................................................................................
   1    10.00       9.998       9.992       9.972       9.904       9.698       9.131       7.760       4.914      1.1593E-02
   2    10.00       9.998       9.992       9.972       9.904       9.698       9.131       7.760       4.914      1.1593E-02
   3    10.00       9.998       9.992       9.972       9.904       9.698       9.131       7.760       4.914      1.1593E-02
   4    10.00       9.998       9.992       9.972       9.904       9.698       9.131       7.760       4.914      1.1593E-02
   5    10.00       9.998       9.992       9.972       9.904       9.698       9.131       7.760       4.914      1.1593E-02
   6    10.00       9.998       9.992       9.972       9.904       9.698       9.131       7.760       4.914      1.1593E-02
   7    10.00       9.998       9.992       9.972       9.904       9.698       9.131       7.760       4.914      1.1593E-02
   8    10.00       9.998       9.992       9.972       9.904       9.698       9.131       7.760       4.914      1.1593E-02
   9    10.00       9.998       9.992       9.972       9.904       9.698       9.131       7.760       4.914      1.1593E-02
  10    10.00       9.998       9.992       9.972       9.904       9.698       9.131       7.760       4.914      1.1593E-02
1
              HEAD IN LAYER   4 AT END OF TIME STEP  26 IN STRESS PERIOD    2
  ---------------------------------------------------------------------------

            1           2           3           4           5           6           7           8           9          10
 ........................................................................................................................
   1    10.00       9.998       9.992       9.970       9.900       9.688       9.109       7.720       4.860      1.1623E-02
   2    10.00       9.998       9.992       9.970       9.900       9.688       9.109       7.720       4.860      1.1623E-02
   3    10.00       9.998       9.992       9.970       9.900       9.688       9.109       7.720       4.860      1.1623E-02
   4    10.00       9.998       9.992       9.970       9.900       9.688       9.109       7.720       4.860      1.1623E-02
   5    10.00       9.998       9.992       9.970       9.900       9.688       9.109       7.720       4.860      1.1623E-02
   6    10.00       9.998       9.992       9.970       9.900       9.688       9.109       7.720       4.860      1.1623E-02
   7    10.00       9.998       9.992       9.970       9.900       9.688       9.109       7.720       4.860      1.1623E-02
   8    10.00       9.998       9.992       9.970       9.900       9.688       9.109       7.720       4.860      1.1623E-02
   9    10.00       9.998       9.992       9.970       9.900       9.688       9.109       7.720       4.860      1.1623E-02
  10    10.00       9.998       9.992       9.970       9.900       9.688       9.109       7.720       4.860      1.1623E-02
1
              HEAD IN LAYER   5 AT END OF TIME STEP  26 IN STRESS PERIOD    2
  ---------------------------------------------------------------------------

            1           2           3           4           5           6           7           8           9          10
 ........................................................................................................................
   1    10.00       9.998       9.992       9.970       9.898       9.683       9.098       7.699       4.833      1.1578E-02
   2    10.00       9.998       9.992       9.970       9.898       9.683       9.098       7.699       4.833      1.1578E-02
   3    10.00       9.998       9.992       9.970       9.898       9.683       9.098       7.699       4.833      1.1578E-02
   4    10.00       9.998       9.992       9.970       9.898       9.683       9.098       7.699       4.833      1.1578E-02
   5    10.00       9.998       9.992       9.970       9.898       9.683       9.098       7.699       4.833      1.1578E-02
   6    10.00       9.998       9.992       9.970       9.898       9.683       9.098       7.699       4.833      1.1578E-02
   7    10.00       9.998       9.992       9.970       9.898       9.683       9.098       7.699       4.833      1.1578E-02
   8    10.00       9.998       9.992       9.970       9.898       9.683       9.098       7.699       4.833      1.1578E-02
   9    10.00       9.998       9.992       9.970       9.898       9.683       9.098       7.699       4.833      1.1578E-02
  10    10.00       9.998       9.992       9.970       9.898       9.683       9.098       7.699       4.833      1.1578E-02

 HEAD WILL BE SAVED ON UNIT   51 AT END OF TIME STEP   26, STRESS PERIOD    2

 DRAWDOWN WILL BE SAVED ON UNIT   52 AT END OF TIME STEP   26, STRESS PERIOD    2
1
  VOLUMETRIC BUDGET FOR ENTIRE MODEL AT END OF TIME STEP   26, STRESS PERIOD   2
  ------------------------------------------------------------------------------

     CUMULATIVE VOLUMES      L**3       RATES FOR THIS TIME STEP      L**3/T
     ------------------                 ------------------------

           IN:                                      IN:
           ---                                      ---
             STORAGE =      190853.9375               STORAGE =        2505.7231
       CONSTANT HEAD =           0.0000         CONSTANT HEAD =           0.0000
               WELLS =           0.0000                 WELLS =           0.0000
     HEAD DEP BOUNDS =           6.5632       HEAD DEP BOUNDS =           1.0839

            TOTAL IN =      190860.5000              TOTAL IN =        2506.8069

          OUT:                                     OUT:
          ----                                     ----
             STORAGE =           0.0000               STORAGE =           0.0000
       CONSTANT HEAD =           0.0000         CONSTANT HEAD =           0.0000
               WELLS =           0.0000                 WELLS =           0.0000
     HEAD DEP BOUNDS =      190860.6250       HEAD DEP BOUNDS =        2506.8335

           TOTAL OUT =      190860.6250             TOTAL OUT =        2506.8335

            IN - OUT =          -0.1250              IN - OUT =      -2.6611E-02

 PERCENT DISCREPANCY =          -0.00     PERCENT DISCREPANCY =          -0.00






         TIME SUMMARY AT END OF TIME STEP   26 IN STRESS PERIOD    2
                    SECONDS     MINUTES      HOURS       DAYS        YEARS
                    -----------------------------------------------------------
   TIME STEP LENGTH  86400.      1440.0      24.000      1.0000     2.73785E-03
 STRESS PERIOD TIME 2.24640E+06  37440.      624.00      26.000     7.11841E-02
         TOTAL TIME 2.33280E+06  38880.      648.00      27.000     7.39220E-02
1
 
 SOLVING FOR HEAD 

 OUTPUT CONTROL FOR STRESS PERIOD    2   TIME STEP   27
    SAVE HEAD FOR ALL LAYERS
    SAVE DRAWDOWN FOR ALL LAYERS
    SAVE BUDGET
    PRINT HEAD FOR ALL LAYERS
    PRINT BUDGET
 UBDSV1 SAVING "         STORAGE" ON UNIT  53 AT TIME STEP 27, STRESS PERIOD   2
 UBDSV2 SAVING "   CONSTANT HEAD" ON UNIT  53 AT TIME STEP 27, STRESS PERIOD   2
 UBDSV1 SAVING "FLOW RIGHT FACE " ON UNIT  53 AT TIME STEP 27, STRESS PERIOD   2
 UBDSV1 SAVING "FLOW FRONT FACE " ON UNIT  53 AT TIME STEP 27, STRESS PERIOD   2
 UBDSV1 SAVING "FLOW LOWER FACE " ON UNIT  53 AT TIME STEP 27, STRESS PERIOD   2
1
              HEAD IN LAYER   1 AT END OF TIME STEP  27 IN STRESS PERIOD    2
  ---------------------------------------------------------------------------

            1           2           3           4           5           6           7           8           9          10
 ........................................................................................................................
   1    10.00       9.998       9.993       9.973       9.909       9.711       9.162       7.819       5.004      4.7374E-03
   2    10.00       9.998       9.993       9.973       9.909       9.711       9.162       7.819       5.004      4.7374E-03
   3    10.00       9.998       9.993       9.973       9.909       9.711       9.162       7.819       5.004      4.7374E-03
   4    10.00       9.998       9.993       9.973       9.909       9.711       9.162       7.819       5.004      4.7374E-03
   5    10.00       9.998       9.993       9.973       9.909       9.711       9.162       7.819       5.004      4.7374E-03
   6    10.00       9.998       9.993       9.973       9.909       9.711       9.162       7.819       5.004      4.7374E-03
   7    10.00       9.998       9.993       9.973       9.909       9.711       9.162       7.819       5.004      4.7374E-03
   8    10.00       9.998       9.993       9.973       9.909       9.711       9.162       7.819       5.004      4.7374E-03
   9    10.00       9.998       9.993       9.973       9.909       9.711       9.162       7.819       5.004      4.7374E-03
  10    10.00       9.998       9.993       9.973       9.909       9.711       9.162       7.819       5.004      4.7374E-03
1
              HEAD IN LAYER   2 AT END OF TIME STEP  27 IN STRESS PERIOD    2
  ---------------------------------------------------------------------------

            1           2           3           4           5           6           7           8           9          10
 ........................................................................................................................
   1    10.00       9.998       9.992       9.971       9.901       9.691       9.120       7.747       4.918      1.0352E-02
   2    10.00       9.998       9.992       9.971       9.901       9.691       9.120       7.747       4.918      1.0352E-02
   3    10.00       9.998       9.992       9.971       9.901       9.691       9.120       7.747       4.918      1.0352E-02
   4    10.00       9.998       9.992       9.971       9.901       9.691       9.120       7.747       4.918      1.0352E-02
   5    10.00       9.998       9.992       9.971       9.901       9.691       9.120       7.747       4.918      1.0352E-02
   6    10.00       9.998       9.992       9.971       9.901       9.691       9.120       7.747       4.918      1.0352E-02
   7    10.00       9.998       9.992       9.971       9.901       9.691       9.120       7.747       4.918      1.0352E-02
   8    10.00       9.998       9.992       9.971       9.901       9.691       9.120       7.747       4.918      1.0352E-02
   9    10.00       9.998       9.992       9.971       9.901       9.691       9.120       7.747       4.918      1.0352E-02
  10    10.00       9.998       9.992       9.971       9.901       9.691       9.120       7.747       4.918      1.0352E-02
1
              HEAD IN LAYER   3 AT END OF TIME STEP  27 IN STRESS PERIOD    2
  ---------------------------------------------------------------------------

            1           2           3           4           5           6           7           8           9          10
 ........................................................................................................................
   1    10.00       9.998       9.991       9.969       9.895       9.676       9.086       7.687       4.838      1.1413E-02
   2    10.00       9.998       9.991       9.969       9.895       9.676       9.086       7.687       4.838      1.1413E-02
   3    10.00       9.998       9.991       9.969       9.895       9.676       9.086       7.687       4.838      1.1413E-02
   4    10.00       9.998       9.991       9.969       9.895       9.676       9.086       7.687       4.838      1.1413E-02
   5    10.00       9.998       9.991       9.969       9.895       9.676       9.086       7.687       4.838      1.1413E-02
   6    10.00       9.998       9.991       9.969       9.895       9.676       9.086       7.687       4.838      1.1413E-02
   7    10.00       9.998       9.991       9.969       9.895       9.676       9.086       7.687       4.838      1.1413E-02
   8    10.00       9.998       9.991       9.969       9.895       9.676       9.086       7.687       4.838      1.1413E-02
   9    10.00       9.998       9.991       9.969       9.895       9.676       9.086       7.687       4.838      1.1413E-02
  10    10.00       9.998       9.991       9.969       9.895       9.676       9.086       7.687       4.838      1.1413E-02
1
              HEAD IN LAYER   4 AT END OF TIME STEP  27 IN STRESS PERIOD    2
  ---------------------------------------------------------------------------

            1           2           3           4           5           6           7           8           9          10
 ........................................................................................................................
   1    10.00       9.998       9.991       9.967       9.891       9.666       9.064       7.648       4.786      1.1446E-02
   2    10.00       9.998       9.991       9.967       9.891       9.666       9.064       7.648       4.786      1.1446E-02
   3    10.00       9.998       9.991       9.967       9.891       9.666       9.064       7.648       4.786      1.1446E-02
   4    10.00       9.998       9.991       9.967       9.891       9.666       9.064       7.648       4.786      1.1446E-02
   5    10.00       9.998       9.991       9.967       9.891       9.666       9.064       7.648       4.786      1.1446E-02
   6    10.00       9.998       9.991       9.967       9.891       9.666       9.064       7.648       4.786      1.1446E-02
   7    10.00       9.998       9.991       9.967       9.891       9.666       9.064       7.648       4.786      1.1446E-02
   8    10.00       9.998       9.991       9.967       9.891       9.666       9.064       7.648       4.786      1.1446E-02
   9    10.00       9.998       9.991       9.967       9.891       9.666       9.064       7.648       4.786      1.1446E-02
  10    10.00       9.998       9.991       9.967       9.891       9.666       9.064       7.648       4.786      1.1446E-02
1
              HEAD IN LAYER   5 AT END OF TIME STEP  27 IN STRESS PERIOD    2
  ---------------------------------------------------------------------------

            1           2           3           4           5           6           7           8           9          10
 ........................................................................................................................
   1    10.00       9.998       9.991       9.966       9.889       9.661       9.053       7.628       4.760      1.1403E-02
   2    10.00       9.998       9.991       9.966       9.889       9.661       9.053       7.628       4.760      1.1403E-02
   3    10.00       9.998       9.991       9.966       9.889       9.661       9.053       7.628       4.760      1.1403E-02
   4    10.00       9.998       9.991       9.966       9.889       9.661       9.053       7.628       4.760      1.1403E-02
   5    10.00       9.998       9.991       9.966       9.889       9.661       9.053       7.628       4.760      1.1403E-02
   6    10.00       9.998       9.991       9.966       9.889       9.661       9.053       7.628       4.760      1.1403E-02
   7    10.00       9.998       9.991       9.966       9.889       9.661       9.053       7.628       4.760      1.1403E-02
   8    10.00       9.998       9.991       9.966       9.889       9.661       9.053       7.628       4.760      1.1403E-02
   9    10.00       9.998       9.991       9.966       9.889       9.661       9.053       7.628       4.760      1.1403E-02
  10    10.00       9.998       9.991       9.966       9.889       9.661       9.053       7.628       4.760      1.1403E-02

 HEAD WILL BE SAVED ON UNIT   51 AT END OF TIME STEP   27, STRESS PERIOD    2

 DRAWDOWN WILL BE SAVED ON UNIT   52 AT END OF TIME STEP   27, STRESS PERIOD    2
1
  VOLUMETRIC BUDGET FOR ENTIRE MODEL AT END OF TIME STEP   27, STRESS PERIOD   2
  ------------------------------------------------------------------------------

     CUMULATIVE VOLUMES      L**3       RATES FOR THIS TIME STEP      L**3/T
     ------------------                 ------------------------

           IN:                                      IN:
           ---                                      ---
             STORAGE =      193320.2031               STORAGE =        2466.2693
       CONSTANT HEAD =           0.0000         CONSTANT HEAD =           0.0000
               WELLS =           0.0000                 WELLS =           0.0000
     HEAD DEP BOUNDS =           7.8106       HEAD DEP BOUNDS =           1.2475

            TOTAL IN =      193328.0156              TOTAL IN =        2467.5168

          OUT:                                     OUT:
          ----                                     ----
             STORAGE =           0.0000               STORAGE =           0.0000
       CONSTANT HEAD =           0.0000         CONSTANT HEAD =           0.0000
               WELLS =           0.0000                 WELLS =           0.0000
     HEAD DEP BOUNDS =      193328.2031       HEAD DEP BOUNDS =        2467.5732

           TOTAL OUT =      193328.2031             TOTAL OUT =        2467.5732

            IN - OUT =          -0.1875              IN - OUT =      -5.6396E-02

 PERCENT DISCREPANCY =          -0.00     PERCENT DISCREPANCY =          -0.00






         TIME SUMMARY AT END OF TIME STEP   27 IN STRESS PERIOD    2
                    SECONDS     MINUTES      HOURS       DAYS        YEARS
                    -----------------------------------------------------------
   TIME STEP LENGTH  86400.      1440.0      24.000      1.0000     2.73785E-03
 STRESS PERIOD TIME 2.33280E+06  38880.      648.00      27.000     7.39220E-02
         TOTAL TIME 2.41920E+06  40320.      672.00      28.000     7.66598E-02
1
 
 SOLVING FOR HEAD 

 OUTPUT CONTROL FOR STRESS PERIOD    2   TIME STEP   28
    SAVE HEAD FOR ALL LAYERS
    SAVE DRAWDOWN FOR ALL LAYERS
    SAVE BUDGET
    PRINT HEAD FOR ALL LAYERS
    PRINT BUDGET
 UBDSV1 SAVING "         STORAGE" ON UNIT  53 AT TIME STEP 28, STRESS PERIOD   2
 UBDSV2 SAVING "   CONSTANT HEAD" ON UNIT  53 AT TIME STEP 28, STRESS PERIOD   2
 UBDSV1 SAVING "FLOW RIGHT FACE " ON UNIT  53 AT TIME STEP 28, STRESS PERIOD   2
 UBDSV1 SAVING "FLOW FRONT FACE " ON UNIT  53 AT TIME STEP 28, STRESS PERIOD   2
 UBDSV1 SAVING "FLOW LOWER FACE " ON UNIT  53 AT TIME STEP 28, STRESS PERIOD   2
1
              HEAD IN LAYER   1 AT END OF TIME STEP  28 IN STRESS PERIOD    2
  ---------------------------------------------------------------------------

            1           2           3           4           5           6           7           8           9          10
 ........................................................................................................................
   1    10.00       9.998       9.992       9.970       9.901       9.690       9.117       7.745       4.924      4.6564E-03
   2    10.00       9.998       9.992       9.970       9.901       9.690       9.117       7.745       4.924      4.6564E-03
   3    10.00       9.998       9.992       9.970       9.901       9.690       9.117       7.745       4.924      4.6564E-03
   4    10.00       9.998       9.992       9.970       9.901       9.690       9.117       7.745       4.924      4.6564E-03
   5    10.00       9.998       9.992       9.970       9.901       9.690       9.117       7.745       4.924      4.6564E-03
   6    10.00       9.998       9.992       9.970       9.901       9.690       9.117       7.745       4.924      4.6564E-03
   7    10.00       9.998       9.992       9.970       9.901       9.690       9.117       7.745       4.924      4.6564E-03
   8    10.00       9.998       9.992       9.970       9.901       9.690       9.117       7.745       4.924      4.6564E-03
   9    10.00       9.998       9.992       9.970       9.901       9.690       9.117       7.745       4.924      4.6564E-03
  10    10.00       9.998       9.992       9.970       9.901       9.690       9.117       7.745       4.924      4.6564E-03
1
              HEAD IN LAYER   2 AT END OF TIME STEP  28 IN STRESS PERIOD    2
  ---------------------------------------------------------------------------

            1           2           3           4           5           6           7           8           9          10
 ........................................................................................................................
   1    10.00       9.998       9.991       9.967       9.892       9.669       9.075       7.674       4.842      1.0191E-02
   2    10.00       9.998       9.991       9.967       9.892       9.669       9.075       7.674       4.842      1.0191E-02
   3    10.00       9.998       9.991       9.967       9.892       9.669       9.075       7.674       4.842      1.0191E-02
   4    10.00       9.998       9.991       9.967       9.892       9.669       9.075       7.674       4.842      1.0191E-02
   5    10.00       9.998       9.991       9.967       9.892       9.669       9.075       7.674       4.842      1.0191E-02
   6    10.00       9.998       9.991       9.967       9.892       9.669       9.075       7.674       4.842      1.0191E-02
   7    10.00       9.998       9.991       9.967       9.892       9.669       9.075       7.674       4.842      1.0191E-02
   8    10.00       9.998       9.991       9.967       9.892       9.669       9.075       7.674       4.842      1.0191E-02
   9    10.00       9.998       9.991       9.967       9.892       9.669       9.075       7.674       4.842      1.0191E-02
  10    10.00       9.998       9.991       9.967       9.892       9.669       9.075       7.674       4.842      1.0191E-02
1
              HEAD IN LAYER   3 AT END OF TIME STEP  28 IN STRESS PERIOD    2
  ---------------------------------------------------------------------------

            1           2           3           4           5           6           7           8           9          10
 ........................................................................................................................
   1    10.00       9.997       9.990       9.965       9.886       9.654       9.041       7.616       4.765      1.1240E-02
   2    10.00       9.997       9.990       9.965       9.886       9.654       9.041       7.616       4.765      1.1240E-02
   3    10.00       9.997       9.990       9.965       9.886       9.654       9.041       7.616       4.765      1.1240E-02
   4    10.00       9.997       9.990       9.965       9.886       9.654       9.041       7.616       4.765      1.1240E-02
   5    10.00       9.997       9.990       9.965       9.886       9.654       9.041       7.616       4.765      1.1240E-02
   6    10.00       9.997       9.990       9.965       9.886       9.654       9.041       7.616       4.765      1.1240E-02
   7    10.00       9.997       9.990       9.965       9.886       9.654       9.041       7.616       4.765      1.1240E-02
   8    10.00       9.997       9.990       9.965       9.886       9.654       9.041       7.616       4.765      1.1240E-02
   9    10.00       9.997       9.990       9.965       9.886       9.654       9.041       7.616       4.765      1.1240E-02
  10    10.00       9.997       9.990       9.965       9.886       9.654       9.041       7.616       4.765      1.1240E-02
1
              HEAD IN LAYER   4 AT END OF TIME STEP  28 IN STRESS PERIOD    2
  ---------------------------------------------------------------------------

            1           2           3           4           5           6           7           8           9          10
 ........................................................................................................................
   1    10.00       9.997       9.990       9.964       9.882       9.643       9.019       7.577       4.715      1.1276E-02
   2    10.00       9.997       9.990       9.964       9.882       9.643       9.019       7.577       4.715      1.1276E-02
   3    10.00       9.997       9.990       9.964       9.882       9.643       9.019       7.577       4.715      1.1276E-02
   4    10.00       9.997       9.990       9.964       9.882       9.643       9.019       7.577       4.715      1.1276E-02
   5    10.00       9.997       9.990       9.964       9.882       9.643       9.019       7.577       4.715      1.1276E-02
   6    10.00       9.997       9.990       9.964       9.882       9.643       9.019       7.577       4.715      1.1276E-02
   7    10.00       9.997       9.990       9.964       9.882       9.643       9.019       7.577       4.715      1.1276E-02
   8    10.00       9.997       9.990       9.964       9.882       9.643       9.019       7.577       4.715      1.1276E-02
   9    10.00       9.997       9.990       9.964       9.882       9.643       9.019       7.577       4.715      1.1276E-02
  10    10.00       9.997       9.990       9.964       9.882       9.643       9.019       7.577       4.715      1.1276E-02
1
              HEAD IN LAYER   5 AT END OF TIME STEP  28 IN STRESS PERIOD    2
  ---------------------------------------------------------------------------

            1           2           3           4           5           6           7           8           9          10
 ........................................................................................................................
   1    10.00       9.997       9.989       9.963       9.880       9.638       9.008       7.558       4.689      1.1235E-02
   2    10.00       9.997       9.989       9.963       9.880       9.638       9.008       7.558       4.689      1.1235E-02
   3    10.00       9.997       9.989       9.963       9.880       9.638       9.008       7.558       4.689      1.1235E-02
   4    10.00       9.997       9.989       9.963       9.880       9.638       9.008       7.558       4.689      1.1235E-02
   5    10.00       9.997       9.989       9.963       9.880       9.638       9.008       7.558       4.689      1.1235E-02
   6    10.00       9.997       9.989       9.963       9.880       9.638       9.008       7.558       4.689      1.1235E-02
   7    10.00       9.997       9.989       9.963       9.880       9.638       9.008       7.558       4.689      1.1235E-02
   8    10.00       9.997       9.989       9.963       9.880       9.638       9.008       7.558       4.689      1.1235E-02
   9    10.00       9.997       9.989       9.963       9.880       9.638       9.008       7.558       4.689      1.1235E-02
  10    10.00       9.997       9.989       9.963       9.880       9.638       9.008       7.558       4.689      1.1235E-02

 HEAD WILL BE SAVED ON UNIT   51 AT END OF TIME STEP   28, STRESS PERIOD    2

 DRAWDOWN WILL BE SAVED ON UNIT   52 AT END OF TIME STEP   28, STRESS PERIOD    2
1
  VOLUMETRIC BUDGET FOR ENTIRE MODEL AT END OF TIME STEP   28, STRESS PERIOD   2
  ------------------------------------------------------------------------------

     CUMULATIVE VOLUMES      L**3       RATES FOR THIS TIME STEP      L**3/T
     ------------------                 ------------------------

           IN:                                      IN:
           ---                                      ---
             STORAGE =      195748.6406               STORAGE =        2428.4309
       CONSTANT HEAD =           0.0000         CONSTANT HEAD =           0.0000
               WELLS =           0.0000                 WELLS =           0.0000
     HEAD DEP BOUNDS =           9.2388       HEAD DEP BOUNDS =           1.4282

            TOTAL IN =      195757.8750              TOTAL IN =        2429.8591

          OUT:                                     OUT:
          ----                                     ----
             STORAGE =           0.0000               STORAGE =           0.0000
       CONSTANT HEAD =           0.0000         CONSTANT HEAD =           0.0000
               WELLS =           0.0000                 WELLS =           0.0000
     HEAD DEP BOUNDS =      195758.1250       HEAD DEP BOUNDS =        2429.9141

           TOTAL OUT =      195758.1250             TOTAL OUT =        2429.9141

            IN - OUT =          -0.2500              IN - OUT =      -5.4932E-02

 PERCENT DISCREPANCY =          -0.00     PERCENT DISCREPANCY =          -0.00






         TIME SUMMARY AT END OF TIME STEP   28 IN STRESS PERIOD    2
                    SECONDS     MINUTES      HOURS       DAYS        YEARS
                    -----------------------------------------------------------
   TIME STEP LENGTH  86400.      1440.0      24.000      1.0000     2.73785E-03
 STRESS PERIOD TIME 2.41920E+06  40320.      672.00      28.000     7.66598E-02
         TOTAL TIME 2.50560E+06  41760.      696.00      29.000     7.93977E-02
1
 
 SOLVING FOR HEAD 

 OUTPUT CONTROL FOR STRESS PERIOD    2   TIME STEP   29
    SAVE HEAD FOR ALL LAYERS
    SAVE DRAWDOWN FOR ALL LAYERS
    SAVE BUDGET
    PRINT HEAD FOR ALL LAYERS
    PRINT BUDGET
 UBDSV1 SAVING "         STORAGE" ON UNIT  53 AT TIME STEP 29, STRESS PERIOD   2
 UBDSV2 SAVING "   CONSTANT HEAD" ON UNIT  53 AT TIME STEP 29, STRESS PERIOD   2
 UBDSV1 SAVING "FLOW RIGHT FACE " ON UNIT  53 AT TIME STEP 29, STRESS PERIOD   2
 UBDSV1 SAVING "FLOW FRONT FACE " ON UNIT  53 AT TIME STEP 29, STRESS PERIOD   2
 UBDSV1 SAVING "FLOW LOWER FACE " ON UNIT  53 AT TIME STEP 29, STRESS PERIOD   2
1
              HEAD IN LAYER   1 AT END OF TIME STEP  29 IN STRESS PERIOD    2
  ---------------------------------------------------------------------------

            1           2           3           4           5           6           7           8           9          10
 ........................................................................................................................
   1    10.00       9.998       9.991       9.967       9.892       9.668       9.073       7.673       4.848      4.5787E-03
   2    10.00       9.998       9.991       9.967       9.892       9.668       9.073       7.673       4.848      4.5787E-03
   3    10.00       9.998       9.991       9.967       9.892       9.668       9.073       7.673       4.848      4.5787E-03
   4    10.00       9.998       9.991       9.967       9.892       9.668       9.073       7.673       4.848      4.5787E-03
   5    10.00       9.998       9.991       9.967       9.892       9.668       9.073       7.673       4.848      4.5787E-03
   6    10.00       9.998       9.991       9.967       9.892       9.668       9.073       7.673       4.848      4.5787E-03
   7    10.00       9.998       9.991       9.967       9.892       9.668       9.073       7.673       4.848      4.5787E-03
   8    10.00       9.998       9.991       9.967       9.892       9.668       9.073       7.673       4.848      4.5787E-03
   9    10.00       9.998       9.991       9.967       9.892       9.668       9.073       7.673       4.848      4.5787E-03
  10    10.00       9.998       9.991       9.967       9.892       9.668       9.073       7.673       4.848      4.5787E-03
1
              HEAD IN LAYER   2 AT END OF TIME STEP  29 IN STRESS PERIOD    2
  ---------------------------------------------------------------------------

            1           2           3           4           5           6           7           8           9          10
 ........................................................................................................................
   1    10.00       9.997       9.990       9.964       9.883       9.647       9.030       7.604       4.769      1.0036E-02
   2    10.00       9.997       9.990       9.964       9.883       9.647       9.030       7.604       4.769      1.0036E-02
   3    10.00       9.997       9.990       9.964       9.883       9.647       9.030       7.604       4.769      1.0036E-02
   4    10.00       9.997       9.990       9.964       9.883       9.647       9.030       7.604       4.769      1.0036E-02
   5    10.00       9.997       9.990       9.964       9.883       9.647       9.030       7.604       4.769      1.0036E-02
   6    10.00       9.997       9.990       9.964       9.883       9.647       9.030       7.604       4.769      1.0036E-02
   7    10.00       9.997       9.990       9.964       9.883       9.647       9.030       7.604       4.769      1.0036E-02
   8    10.00       9.997       9.990       9.964       9.883       9.647       9.030       7.604       4.769      1.0036E-02
   9    10.00       9.997       9.990       9.964       9.883       9.647       9.030       7.604       4.769      1.0036E-02
  10    10.00       9.997       9.990       9.964       9.883       9.647       9.030       7.604       4.769      1.0036E-02
1
              HEAD IN LAYER   3 AT END OF TIME STEP  29 IN STRESS PERIOD    2
  ---------------------------------------------------------------------------

            1           2           3           4           5           6           7           8           9          10
 ........................................................................................................................
   1    10.00       9.997       9.989       9.962       9.876       9.631       8.997       7.546       4.695      1.1075E-02
   2    10.00       9.997       9.989       9.962       9.876       9.631       8.997       7.546       4.695      1.1075E-02
   3    10.00       9.997       9.989       9.962       9.876       9.631       8.997       7.546       4.695      1.1075E-02
   4    10.00       9.997       9.989       9.962       9.876       9.631       8.997       7.546       4.695      1.1075E-02
   5    10.00       9.997       9.989       9.962       9.876       9.631       8.997       7.546       4.695      1.1075E-02
   6    10.00       9.997       9.989       9.962       9.876       9.631       8.997       7.546       4.695      1.1075E-02
   7    10.00       9.997       9.989       9.962       9.876       9.631       8.997       7.546       4.695      1.1075E-02
   8    10.00       9.997       9.989       9.962       9.876       9.631       8.997       7.546       4.695      1.1075E-02
   9    10.00       9.997       9.989       9.962       9.876       9.631       8.997       7.546       4.695      1.1075E-02
  10    10.00       9.997       9.989       9.962       9.876       9.631       8.997       7.546       4.695      1.1075E-02
1
              HEAD IN LAYER   4 AT END OF TIME STEP  29 IN STRESS PERIOD    2
  ---------------------------------------------------------------------------

            1           2           3           4           5           6           7           8           9          10
 ........................................................................................................................
   1    10.00       9.997       9.988       9.960       9.872       9.620       8.974       7.508       4.646      1.1112E-02
   2    10.00       9.997       9.988       9.960       9.872       9.620       8.974       7.508       4.646      1.1112E-02
   3    10.00       9.997       9.988       9.960       9.872       9.620       8.974       7.508       4.646      1.1112E-02
   4    10.00       9.997       9.988       9.960       9.872       9.620       8.974       7.508       4.646      1.1112E-02
   5    10.00       9.997       9.988       9.960       9.872       9.620       8.974       7.508       4.646      1.1112E-02
   6    10.00       9.997       9.988       9.960       9.872       9.620       8.974       7.508       4.646      1.1112E-02
   7    10.00       9.997       9.988       9.960       9.872       9.620       8.974       7.508       4.646      1.1112E-02
   8    10.00       9.997       9.988       9.960       9.872       9.620       8.974       7.508       4.646      1.1112E-02
   9    10.00       9.997       9.988       9.960       9.872       9.620       8.974       7.508       4.646      1.1112E-02
  10    10.00       9.997       9.988       9.960       9.872       9.620       8.974       7.508       4.646      1.1112E-02
1
              HEAD IN LAYER   5 AT END OF TIME STEP  29 IN STRESS PERIOD    2
  ---------------------------------------------------------------------------

            1           2           3           4           5           6           7           8           9          10
 ........................................................................................................................
   1    10.00       9.997       9.988       9.959       9.870       9.615       8.963       7.489       4.622      1.1073E-02
   2    10.00       9.997       9.988       9.959       9.870       9.615       8.963       7.489       4.622      1.1073E-02
   3    10.00       9.997       9.988       9.959       9.870       9.615       8.963       7.489       4.622      1.1073E-02
   4    10.00       9.997       9.988       9.959       9.870       9.615       8.963       7.489       4.622      1.1073E-02
   5    10.00       9.997       9.988       9.959       9.870       9.615       8.963       7.489       4.622      1.1073E-02
   6    10.00       9.997       9.988       9.959       9.870       9.615       8.963       7.489       4.622      1.1073E-02
   7    10.00       9.997       9.988       9.959       9.870       9.615       8.963       7.489       4.622      1.1073E-02
   8    10.00       9.997       9.988       9.959       9.870       9.615       8.963       7.489       4.622      1.1073E-02
   9    10.00       9.997       9.988       9.959       9.870       9.615       8.963       7.489       4.622      1.1073E-02
  10    10.00       9.997       9.988       9.959       9.870       9.615       8.963       7.489       4.622      1.1073E-02

 HEAD WILL BE SAVED ON UNIT   51 AT END OF TIME STEP   29, STRESS PERIOD    2

 DRAWDOWN WILL BE SAVED ON UNIT   52 AT END OF TIME STEP   29, STRESS PERIOD    2
1
  VOLUMETRIC BUDGET FOR ENTIRE MODEL AT END OF TIME STEP   29, STRESS PERIOD   2
  ------------------------------------------------------------------------------

     CUMULATIVE VOLUMES      L**3       RATES FOR THIS TIME STEP      L**3/T
     ------------------                 ------------------------

           IN:                                      IN:
           ---                                      ---
             STORAGE =      198140.7344               STORAGE =        2392.0886
       CONSTANT HEAD =           0.0000         CONSTANT HEAD =           0.0000
               WELLS =           0.0000                 WELLS =           0.0000
     HEAD DEP BOUNDS =          10.8659       HEAD DEP BOUNDS =           1.6271

            TOTAL IN =      198151.5938              TOTAL IN =        2393.7158

          OUT:                                     OUT:
          ----                                     ----
             STORAGE =           0.0000               STORAGE =           0.0000
       CONSTANT HEAD =           0.0000         CONSTANT HEAD =           0.0000
               WELLS =           0.0000                 WELLS =           0.0000
     HEAD DEP BOUNDS =      198151.8750       HEAD DEP BOUNDS =        2393.7534

           TOTAL OUT =      198151.8750             TOTAL OUT =        2393.7534

            IN - OUT =          -0.2812              IN - OUT =      -3.7598E-02

 PERCENT DISCREPANCY =          -0.00     PERCENT DISCREPANCY =          -0.00






         TIME SUMMARY AT END OF TIME STEP   29 IN STRESS PERIOD    2
                    SECONDS     MINUTES      HOURS       DAYS        YEARS
                    -----------------------------------------------------------
   TIME STEP LENGTH  86400.      1440.0      24.000      1.0000     2.73785E-03
 STRESS PERIOD TIME 2.50560E+06  41760.      696.00      29.000     7.93977E-02
         TOTAL TIME 2.59200E+06  43200.      720.00      30.000     8.21355E-02
1
 
 SOLVING FOR HEAD 

 OUTPUT CONTROL FOR STRESS PERIOD    2   TIME STEP   30
    SAVE HEAD FOR ALL LAYERS
    SAVE DRAWDOWN FOR ALL LAYERS
    SAVE BUDGET
    PRINT HEAD FOR ALL LAYERS
    PRINT BUDGET
 UBDSV1 SAVING "         STORAGE" ON UNIT  53 AT TIME STEP 30, STRESS PERIOD   2
 UBDSV2 SAVING "   CONSTANT HEAD" ON UNIT  53 AT TIME STEP 30, STRESS PERIOD   2
 UBDSV1 SAVING "FLOW RIGHT FACE " ON UNIT  53 AT TIME STEP 30, STRESS PERIOD   2
 UBDSV1 SAVING "FLOW FRONT FACE " ON UNIT  53 AT TIME STEP 30, STRESS PERIOD   2
 UBDSV1 SAVING "FLOW LOWER FACE " ON UNIT  53 AT TIME STEP 30, STRESS PERIOD   2
1
              HEAD IN LAYER   1 AT END OF TIME STEP  30 IN STRESS PERIOD    2
  ---------------------------------------------------------------------------

            1           2           3           4           5           6           7           8           9          10
 ........................................................................................................................
   1    10.00       9.997       9.990       9.964       9.882       9.646       9.028       7.602       4.775      4.5041E-03
   2    10.00       9.997       9.990       9.964       9.882       9.646       9.028       7.602       4.775      4.5041E-03
   3    10.00       9.997       9.990       9.964       9.882       9.646       9.028       7.602       4.775      4.5041E-03
   4    10.00       9.997       9.990       9.964       9.882       9.646       9.028       7.602       4.775      4.5041E-03
   5    10.00       9.997       9.990       9.964       9.882       9.646       9.028       7.602       4.775      4.5041E-03
   6    10.00       9.997       9.990       9.964       9.882       9.646       9.028       7.602       4.775      4.5041E-03
   7    10.00       9.997       9.990       9.964       9.882       9.646       9.028       7.602       4.775      4.5041E-03
   8    10.00       9.997       9.990       9.964       9.882       9.646       9.028       7.602       4.775      4.5041E-03
   9    10.00       9.997       9.990       9.964       9.882       9.646       9.028       7.602       4.775      4.5041E-03
  10    10.00       9.997       9.990       9.964       9.882       9.646       9.028       7.602       4.775      4.5041E-03
1
              HEAD IN LAYER   2 AT END OF TIME STEP  30 IN STRESS PERIOD    2
  ---------------------------------------------------------------------------

            1           2           3           4           5           6           7           8           9          10
 ........................................................................................................................
   1    10.00       9.997       9.988       9.960       9.873       9.624       8.985       7.535       4.699      9.8877E-03
   2    10.00       9.997       9.988       9.960       9.873       9.624       8.985       7.535       4.699      9.8877E-03
   3    10.00       9.997       9.988       9.960       9.873       9.624       8.985       7.535       4.699      9.8877E-03
   4    10.00       9.997       9.988       9.960       9.873       9.624       8.985       7.535       4.699      9.8877E-03
   5    10.00       9.997       9.988       9.960       9.873       9.624       8.985       7.535       4.699      9.8877E-03
   6    10.00       9.997       9.988       9.960       9.873       9.624       8.985       7.535       4.699      9.8877E-03
   7    10.00       9.997       9.988       9.960       9.873       9.624       8.985       7.535       4.699      9.8877E-03
   8    10.00       9.997       9.988       9.960       9.873       9.624       8.985       7.535       4.699      9.8877E-03
   9    10.00       9.997       9.988       9.960       9.873       9.624       8.985       7.535       4.699      9.8877E-03
  10    10.00       9.997       9.988       9.960       9.873       9.624       8.985       7.535       4.699      9.8877E-03
1
              HEAD IN LAYER   3 AT END OF TIME STEP  30 IN STRESS PERIOD    2
  ---------------------------------------------------------------------------

            1           2           3           4           5           6           7           8           9          10
 ........................................................................................................................
   1    10.00       9.997       9.988       9.958       9.866       9.608       8.952       7.478       4.628      1.0916E-02
   2    10.00       9.997       9.988       9.958       9.866       9.608       8.952       7.478       4.628      1.0916E-02
   3    10.00       9.997       9.988       9.958       9.866       9.608       8.952       7.478       4.628      1.0916E-02
   4    10.00       9.997       9.988       9.958       9.866       9.608       8.952       7.478       4.628      1.0916E-02
   5    10.00       9.997       9.988       9.958       9.866       9.608       8.952       7.478       4.628      1.0916E-02
   6    10.00       9.997       9.988       9.958       9.866       9.608       8.952       7.478       4.628      1.0916E-02
   7    10.00       9.997       9.988       9.958       9.866       9.608       8.952       7.478       4.628      1.0916E-02
   8    10.00       9.997       9.988       9.958       9.866       9.608       8.952       7.478       4.628      1.0916E-02
   9    10.00       9.997       9.988       9.958       9.866       9.608       8.952       7.478       4.628      1.0916E-02
  10    10.00       9.997       9.988       9.958       9.866       9.608       8.952       7.478       4.628      1.0916E-02
1
              HEAD IN LAYER   4 AT END OF TIME STEP  30 IN STRESS PERIOD    2
  ---------------------------------------------------------------------------

            1           2           3           4           5           6           7           8           9          10
 ........................................................................................................................
   1    10.00       9.997       9.987       9.956       9.862       9.597       8.929       7.441       4.581      1.0955E-02
   2    10.00       9.997       9.987       9.956       9.862       9.597       8.929       7.441       4.581      1.0955E-02
   3    10.00       9.997       9.987       9.956       9.862       9.597       8.929       7.441       4.581      1.0955E-02
   4    10.00       9.997       9.987       9.956       9.862       9.597       8.929       7.441       4.581      1.0955E-02
   5    10.00       9.997       9.987       9.956       9.862       9.597       8.929       7.441       4.581      1.0955E-02
   6    10.00       9.997       9.987       9.956       9.862       9.597       8.929       7.441       4.581      1.0955E-02
   7    10.00       9.997       9.987       9.956       9.862       9.597       8.929       7.441       4.581      1.0955E-02
   8    10.00       9.997       9.987       9.956       9.862       9.597       8.929       7.441       4.581      1.0955E-02
   9    10.00       9.997       9.987       9.956       9.862       9.597       8.929       7.441       4.581      1.0955E-02
  10    10.00       9.997       9.987       9.956       9.862       9.597       8.929       7.441       4.581      1.0955E-02
1
              HEAD IN LAYER   5 AT END OF TIME STEP  30 IN STRESS PERIOD    2
  ---------------------------------------------------------------------------

            1           2           3           4           5           6           7           8           9          10
 ........................................................................................................................
   1    10.00       9.997       9.987       9.955       9.859       9.592       8.918       7.422       4.557      1.0918E-02
   2    10.00       9.997       9.987       9.955       9.859       9.592       8.918       7.422       4.557      1.0918E-02
   3    10.00       9.997       9.987       9.955       9.859       9.592       8.918       7.422       4.557      1.0918E-02
   4    10.00       9.997       9.987       9.955       9.859       9.592       8.918       7.422       4.557      1.0918E-02
   5    10.00       9.997       9.987       9.955       9.859       9.592       8.918       7.422       4.557      1.0918E-02
   6    10.00       9.997       9.987       9.955       9.859       9.592       8.918       7.422       4.557      1.0918E-02
   7    10.00       9.997       9.987       9.955       9.859       9.592       8.918       7.422       4.557      1.0918E-02
   8    10.00       9.997       9.987       9.955       9.859       9.592       8.918       7.422       4.557      1.0918E-02
   9    10.00       9.997       9.987       9.955       9.859       9.592       8.918       7.422       4.557      1.0918E-02
  10    10.00       9.997       9.987       9.955       9.859       9.592       8.918       7.422       4.557      1.0918E-02

 HEAD WILL BE SAVED ON UNIT   51 AT END OF TIME STEP   30, STRESS PERIOD    2

 DRAWDOWN WILL BE SAVED ON UNIT   52 AT END OF TIME STEP   30, STRESS PERIOD    2
1
  VOLUMETRIC BUDGET FOR ENTIRE MODEL AT END OF TIME STEP   30, STRESS PERIOD   2
  ------------------------------------------------------------------------------

     CUMULATIVE VOLUMES      L**3       RATES FOR THIS TIME STEP      L**3/T
     ------------------                 ------------------------

           IN:                                      IN:
           ---                                      ---
             STORAGE =      200497.8438               STORAGE =        2357.1082
       CONSTANT HEAD =           0.0000         CONSTANT HEAD =           0.0000
               WELLS =           0.0000                 WELLS =           0.0000
     HEAD DEP BOUNDS =          12.7107       HEAD DEP BOUNDS =           1.8448

            TOTAL IN =      200510.5469              TOTAL IN =        2358.9529

          OUT:                                     OUT:
          ----                                     ----
             STORAGE =           0.0000               STORAGE =           0.0000
       CONSTANT HEAD =           0.0000         CONSTANT HEAD =           0.0000
               WELLS =           0.0000                 WELLS =           0.0000
     HEAD DEP BOUNDS =      200510.8750       HEAD DEP BOUNDS =        2358.9963

           TOTAL OUT =      200510.8750             TOTAL OUT =        2358.9963

            IN - OUT =          -0.3281              IN - OUT =      -4.3457E-02

 PERCENT DISCREPANCY =          -0.00     PERCENT DISCREPANCY =          -0.00






         TIME SUMMARY AT END OF TIME STEP   30 IN STRESS PERIOD    2
                    SECONDS     MINUTES      HOURS       DAYS        YEARS
                    -----------------------------------------------------------
   TIME STEP LENGTH  86400.      1440.0      24.000      1.0000     2.73785E-03
 STRESS PERIOD TIME 2.59200E+06  43200.      720.00      30.000     8.21355E-02
         TOTAL TIME 2.67840E+06  44640.      744.00      31.000     8.48734E-02
1
 
 SOLVING FOR HEAD 

 OUTPUT CONTROL FOR STRESS PERIOD    2   TIME STEP   31
    SAVE HEAD FOR ALL LAYERS
    SAVE DRAWDOWN FOR ALL LAYERS
    SAVE BUDGET
    PRINT HEAD FOR ALL LAYERS
    PRINT BUDGET
 UBDSV1 SAVING "         STORAGE" ON UNIT  53 AT TIME STEP 31, STRESS PERIOD   2
 UBDSV2 SAVING "   CONSTANT HEAD" ON UNIT  53 AT TIME STEP 31, STRESS PERIOD   2
 UBDSV1 SAVING "FLOW RIGHT FACE " ON UNIT  53 AT TIME STEP 31, STRESS PERIOD   2
 UBDSV1 SAVING "FLOW FRONT FACE " ON UNIT  53 AT TIME STEP 31, STRESS PERIOD   2
 UBDSV1 SAVING "FLOW LOWER FACE " ON UNIT  53 AT TIME STEP 31, STRESS PERIOD   2
1
              HEAD IN LAYER   1 AT END OF TIME STEP  31 IN STRESS PERIOD    2
  ---------------------------------------------------------------------------

            1           2           3           4           5           6           7           8           9          10
 ........................................................................................................................
   1    10.00       9.997       9.988       9.960       9.872       9.623       8.983       7.533       4.705      4.4327E-03
   2    10.00       9.997       9.988       9.960       9.872       9.623       8.983       7.533       4.705      4.4327E-03
   3    10.00       9.997       9.988       9.960       9.872       9.623       8.983       7.533       4.705      4.4327E-03
   4    10.00       9.997       9.988       9.960       9.872       9.623       8.983       7.533       4.705      4.4327E-03
   5    10.00       9.997       9.988       9.960       9.872       9.623       8.983       7.533       4.705      4.4327E-03
   6    10.00       9.997       9.988       9.960       9.872       9.623       8.983       7.533       4.705      4.4327E-03
   7    10.00       9.997       9.988       9.960       9.872       9.623       8.983       7.533       4.705      4.4327E-03
   8    10.00       9.997       9.988       9.960       9.872       9.623       8.983       7.533       4.705      4.4327E-03
   9    10.00       9.997       9.988       9.960       9.872       9.623       8.983       7.533       4.705      4.4327E-03
  10    10.00       9.997       9.988       9.960       9.872       9.623       8.983       7.533       4.705      4.4327E-03
1
              HEAD IN LAYER   2 AT END OF TIME STEP  31 IN STRESS PERIOD    2
  ---------------------------------------------------------------------------

            1           2           3           4           5           6           7           8           9          10
 ........................................................................................................................
   1    10.00       9.997       9.987       9.956       9.863       9.601       8.941       7.467       4.632      9.7450E-03
   2    10.00       9.997       9.987       9.956       9.863       9.601       8.941       7.467       4.632      9.7450E-03
   3    10.00       9.997       9.987       9.956       9.863       9.601       8.941       7.467       4.632      9.7450E-03
   4    10.00       9.997       9.987       9.956       9.863       9.601       8.941       7.467       4.632      9.7450E-03
   5    10.00       9.997       9.987       9.956       9.863       9.601       8.941       7.467       4.632      9.7450E-03
   6    10.00       9.997       9.987       9.956       9.863       9.601       8.941       7.467       4.632      9.7450E-03
   7    10.00       9.997       9.987       9.956       9.863       9.601       8.941       7.467       4.632      9.7450E-03
   8    10.00       9.997       9.987       9.956       9.863       9.601       8.941       7.467       4.632      9.7450E-03
   9    10.00       9.997       9.987       9.956       9.863       9.601       8.941       7.467       4.632      9.7450E-03
  10    10.00       9.997       9.987       9.956       9.863       9.601       8.941       7.467       4.632      9.7450E-03
1
              HEAD IN LAYER   3 AT END OF TIME STEP  31 IN STRESS PERIOD    2
  ---------------------------------------------------------------------------

            1           2           3           4           5           6           7           8           9          10
 ........................................................................................................................
   1    10.00       9.996       9.986       9.954       9.856       9.585       8.907       7.411       4.563      1.0762E-02
   2    10.00       9.996       9.986       9.954       9.856       9.585       8.907       7.411       4.563      1.0762E-02
   3    10.00       9.996       9.986       9.954       9.856       9.585       8.907       7.411       4.563      1.0762E-02
   4    10.00       9.996       9.986       9.954       9.856       9.585       8.907       7.411       4.563      1.0762E-02
   5    10.00       9.996       9.986       9.954       9.856       9.585       8.907       7.411       4.563      1.0762E-02
   6    10.00       9.996       9.986       9.954       9.856       9.585       8.907       7.411       4.563      1.0762E-02
   7    10.00       9.996       9.986       9.954       9.856       9.585       8.907       7.411       4.563      1.0762E-02
   8    10.00       9.996       9.986       9.954       9.856       9.585       8.907       7.411       4.563      1.0762E-02
   9    10.00       9.996       9.986       9.954       9.856       9.585       8.907       7.411       4.563      1.0762E-02
  10    10.00       9.996       9.986       9.954       9.856       9.585       8.907       7.411       4.563      1.0762E-02
1
              HEAD IN LAYER   4 AT END OF TIME STEP  31 IN STRESS PERIOD    2
  ---------------------------------------------------------------------------

            1           2           3           4           5           6           7           8           9          10
 ........................................................................................................................
   1    10.00       9.996       9.986       9.952       9.851       9.573       8.885       7.375       4.517      1.0803E-02
   2    10.00       9.996       9.986       9.952       9.851       9.573       8.885       7.375       4.517      1.0803E-02
   3    10.00       9.996       9.986       9.952       9.851       9.573       8.885       7.375       4.517      1.0803E-02
   4    10.00       9.996       9.986       9.952       9.851       9.573       8.885       7.375       4.517      1.0803E-02
   5    10.00       9.996       9.986       9.952       9.851       9.573       8.885       7.375       4.517      1.0803E-02
   6    10.00       9.996       9.986       9.952       9.851       9.573       8.885       7.375       4.517      1.0803E-02
   7    10.00       9.996       9.986       9.952       9.851       9.573       8.885       7.375       4.517      1.0803E-02
   8    10.00       9.996       9.986       9.952       9.851       9.573       8.885       7.375       4.517      1.0803E-02
   9    10.00       9.996       9.986       9.952       9.851       9.573       8.885       7.375       4.517      1.0803E-02
  10    10.00       9.996       9.986       9.952       9.851       9.573       8.885       7.375       4.517      1.0803E-02
1
              HEAD IN LAYER   5 AT END OF TIME STEP  31 IN STRESS PERIOD    2
  ---------------------------------------------------------------------------

            1           2           3           4           5           6           7           8           9          10
 ........................................................................................................................
   1    10.00       9.996       9.985       9.951       9.849       9.568       8.873       7.356       4.495      1.0768E-02
   2    10.00       9.996       9.985       9.951       9.849       9.568       8.873       7.356       4.495      1.0768E-02
   3    10.00       9.996       9.985       9.951       9.849       9.568       8.873       7.356       4.495      1.0768E-02
   4    10.00       9.996       9.985       9.951       9.849       9.568       8.873       7.356       4.495      1.0768E-02
   5    10.00       9.996       9.985       9.951       9.849       9.568       8.873       7.356       4.495      1.0768E-02
   6    10.00       9.996       9.985       9.951       9.849       9.568       8.873       7.356       4.495      1.0768E-02
   7    10.00       9.996       9.985       9.951       9.849       9.568       8.873       7.356       4.495      1.0768E-02
   8    10.00       9.996       9.985       9.951       9.849       9.568       8.873       7.356       4.495      1.0768E-02
   9    10.00       9.996       9.985       9.951       9.849       9.568       8.873       7.356       4.495      1.0768E-02
  10    10.00       9.996       9.985       9.951       9.849       9.568       8.873       7.356       4.495      1.0768E-02

 HEAD WILL BE SAVED ON UNIT   51 AT END OF TIME STEP   31, STRESS PERIOD    2

 DRAWDOWN WILL BE SAVED ON UNIT   52 AT END OF TIME STEP   31, STRESS PERIOD    2
1
  VOLUMETRIC BUDGET FOR ENTIRE MODEL AT END OF TIME STEP   31, STRESS PERIOD   2
  ------------------------------------------------------------------------------

     CUMULATIVE VOLUMES      L**3       RATES FOR THIS TIME STEP      L**3/T
     ------------------                 ------------------------

           IN:                                      IN:
           ---                                      ---
             STORAGE =      202821.2969               STORAGE =        2323.4546
       CONSTANT HEAD =           0.0000         CONSTANT HEAD =           0.0000
               WELLS =           0.0000                 WELLS =           0.0000
     HEAD DEP BOUNDS =          14.8616       HEAD DEP BOUNDS =           2.1509

            TOTAL IN =      202836.1562              TOTAL IN =        2325.6055

          OUT:                                     OUT:
          ----                                     ----
             STORAGE =           0.0000               STORAGE =           0.0000
       CONSTANT HEAD =           0.0000         CONSTANT HEAD =           0.0000
               WELLS =           0.0000                 WELLS =           0.0000
     HEAD DEP BOUNDS =      202836.4688       HEAD DEP BOUNDS =        2325.5881

           TOTAL OUT =      202836.4688             TOTAL OUT =        2325.5881

            IN - OUT =          -0.3125              IN - OUT =       1.7334E-02

 PERCENT DISCREPANCY =          -0.00     PERCENT DISCREPANCY =           0.00






         TIME SUMMARY AT END OF TIME STEP   31 IN STRESS PERIOD    2
                    SECONDS     MINUTES      HOURS       DAYS        YEARS
                    -----------------------------------------------------------
   TIME STEP LENGTH  86400.      1440.0      24.000      1.0000     2.73785E-03
 STRESS PERIOD TIME 2.67840E+06  44640.      744.00      31.000     8.48734E-02
         TOTAL TIME 2.76480E+06  46080.      768.00      32.000     8.76112E-02
1
 
 SOLVING FOR HEAD 

 OUTPUT CONTROL FOR STRESS PERIOD    2   TIME STEP   32
    SAVE HEAD FOR ALL LAYERS
    SAVE DRAWDOWN FOR ALL LAYERS
    SAVE BUDGET
    PRINT HEAD FOR ALL LAYERS
    PRINT BUDGET
 UBDSV1 SAVING "         STORAGE" ON UNIT  53 AT TIME STEP 32, STRESS PERIOD   2
 UBDSV2 SAVING "   CONSTANT HEAD" ON UNIT  53 AT TIME STEP 32, STRESS PERIOD   2
 UBDSV1 SAVING "FLOW RIGHT FACE " ON UNIT  53 AT TIME STEP 32, STRESS PERIOD   2
 UBDSV1 SAVING "FLOW FRONT FACE " ON UNIT  53 AT TIME STEP 32, STRESS PERIOD   2
 UBDSV1 SAVING "FLOW LOWER FACE " ON UNIT  53 AT TIME STEP 32, STRESS PERIOD   2
1
              HEAD IN LAYER   1 AT END OF TIME STEP  32 IN STRESS PERIOD    2
  ---------------------------------------------------------------------------

            1           2           3           4           5           6           7           8           9          10
 ........................................................................................................................
   1    10.00       9.997       9.987       9.956       9.862       9.600       8.939       7.466       4.637      4.3642E-03
   2    10.00       9.997       9.987       9.956       9.862       9.600       8.939       7.466       4.637      4.3642E-03
   3    10.00       9.997       9.987       9.956       9.862       9.600       8.939       7.466       4.637      4.3642E-03
   4    10.00       9.997       9.987       9.956       9.862       9.600       8.939       7.466       4.637      4.3642E-03
   5    10.00       9.997       9.987       9.956       9.862       9.600       8.939       7.466       4.637      4.3642E-03
   6    10.00       9.997       9.987       9.956       9.862       9.600       8.939       7.466       4.637      4.3642E-03
   7    10.00       9.997       9.987       9.956       9.862       9.600       8.939       7.466       4.637      4.3642E-03
   8    10.00       9.997       9.987       9.956       9.862       9.600       8.939       7.466       4.637      4.3642E-03
   9    10.00       9.997       9.987       9.956       9.862       9.600       8.939       7.466       4.637      4.3642E-03
  10    10.00       9.997       9.987       9.956       9.862       9.600       8.939       7.466       4.637      4.3642E-03
1
              HEAD IN LAYER   2 AT END OF TIME STEP  32 IN STRESS PERIOD    2
  ---------------------------------------------------------------------------

            1           2           3           4           5           6           7           8           9          10
 ........................................................................................................................
   1    10.00       9.996       9.986       9.952       9.853       9.578       8.896       7.401       4.567      9.6078E-03
   2    10.00       9.996       9.986       9.952       9.853       9.578       8.896       7.401       4.567      9.6078E-03
   3    10.00       9.996       9.986       9.952       9.853       9.578       8.896       7.401       4.567      9.6078E-03
   4    10.00       9.996       9.986       9.952       9.853       9.578       8.896       7.401       4.567      9.6078E-03
   5    10.00       9.996       9.986       9.952       9.853       9.578       8.896       7.401       4.567      9.6078E-03
   6    10.00       9.996       9.986       9.952       9.853       9.578       8.896       7.401       4.567      9.6078E-03
   7    10.00       9.996       9.986       9.952       9.853       9.578       8.896       7.401       4.567      9.6078E-03
   8    10.00       9.996       9.986       9.952       9.853       9.578       8.896       7.401       4.567      9.6078E-03
   9    10.00       9.996       9.986       9.952       9.853       9.578       8.896       7.401       4.567      9.6078E-03
  10    10.00       9.996       9.986       9.952       9.853       9.578       8.896       7.401       4.567      9.6078E-03
1
              HEAD IN LAYER   3 AT END OF TIME STEP  32 IN STRESS PERIOD    2
  ---------------------------------------------------------------------------

            1           2           3           4           5           6           7           8           9          10
 ........................................................................................................................
   1    10.00       9.996       9.985       9.950       9.845       9.561       8.862       7.346       4.500      1.0615E-02
   2    10.00       9.996       9.985       9.950       9.845       9.561       8.862       7.346       4.500      1.0615E-02
   3    10.00       9.996       9.985       9.950       9.845       9.561       8.862       7.346       4.500      1.0615E-02
   4    10.00       9.996       9.985       9.950       9.845       9.561       8.862       7.346       4.500      1.0615E-02
   5    10.00       9.996       9.985       9.950       9.845       9.561       8.862       7.346       4.500      1.0615E-02
   6    10.00       9.996       9.985       9.950       9.845       9.561       8.862       7.346       4.500      1.0615E-02
   7    10.00       9.996       9.985       9.950       9.845       9.561       8.862       7.346       4.500      1.0615E-02
   8    10.00       9.996       9.985       9.950       9.845       9.561       8.862       7.346       4.500      1.0615E-02
   9    10.00       9.996       9.985       9.950       9.845       9.561       8.862       7.346       4.500      1.0615E-02
  10    10.00       9.996       9.985       9.950       9.845       9.561       8.862       7.346       4.500      1.0615E-02
1
              HEAD IN LAYER   4 AT END OF TIME STEP  32 IN STRESS PERIOD    2
  ---------------------------------------------------------------------------

            1           2           3           4           5           6           7           8           9          10
 ........................................................................................................................
   1    10.00       9.996       9.984       9.948       9.840       9.549       8.840       7.310       4.457      1.0658E-02
   2    10.00       9.996       9.984       9.948       9.840       9.549       8.840       7.310       4.457      1.0658E-02
   3    10.00       9.996       9.984       9.948       9.840       9.549       8.840       7.310       4.457      1.0658E-02
   4    10.00       9.996       9.984       9.948       9.840       9.549       8.840       7.310       4.457      1.0658E-02
   5    10.00       9.996       9.984       9.948       9.840       9.549       8.840       7.310       4.457      1.0658E-02
   6    10.00       9.996       9.984       9.948       9.840       9.549       8.840       7.310       4.457      1.0658E-02
   7    10.00       9.996       9.984       9.948       9.840       9.549       8.840       7.310       4.457      1.0658E-02
   8    10.00       9.996       9.984       9.948       9.840       9.549       8.840       7.310       4.457      1.0658E-02
   9    10.00       9.996       9.984       9.948       9.840       9.549       8.840       7.310       4.457      1.0658E-02
  10    10.00       9.996       9.984       9.948       9.840       9.549       8.840       7.310       4.457      1.0658E-02
1
              HEAD IN LAYER   5 AT END OF TIME STEP  32 IN STRESS PERIOD    2
  ---------------------------------------------------------------------------

            1           2           3           4           5           6           7           8           9          10
 ........................................................................................................................
   1    10.00       9.996       9.984       9.947       9.838       9.544       8.829       7.292       4.435      1.0624E-02
   2    10.00       9.996       9.984       9.947       9.838       9.544       8.829       7.292       4.435      1.0624E-02
   3    10.00       9.996       9.984       9.947       9.838       9.544       8.829       7.292       4.435      1.0624E-02
   4    10.00       9.996       9.984       9.947       9.838       9.544       8.829       7.292       4.435      1.0624E-02
   5    10.00       9.996       9.984       9.947       9.838       9.544       8.829       7.292       4.435      1.0624E-02
   6    10.00       9.996       9.984       9.947       9.838       9.544       8.829       7.292       4.435      1.0624E-02
   7    10.00       9.996       9.984       9.947       9.838       9.544       8.829       7.292       4.435      1.0624E-02
   8    10.00       9.996       9.984       9.947       9.838       9.544       8.829       7.292       4.435      1.0624E-02
   9    10.00       9.996       9.984       9.947       9.838       9.544       8.829       7.292       4.435      1.0624E-02
  10    10.00       9.996       9.984       9.947       9.838       9.544       8.829       7.292       4.435      1.0624E-02

 HEAD WILL BE SAVED ON UNIT   51 AT END OF TIME STEP   32, STRESS PERIOD    2

 DRAWDOWN WILL BE SAVED ON UNIT   52 AT END OF TIME STEP   32, STRESS PERIOD    2
1
  VOLUMETRIC BUDGET FOR ENTIRE MODEL AT END OF TIME STEP   32, STRESS PERIOD   2
  ------------------------------------------------------------------------------

     CUMULATIVE VOLUMES      L**3       RATES FOR THIS TIME STEP      L**3/T
     ------------------                 ------------------------

           IN:                                      IN:
           ---                                      ---
             STORAGE =      205112.3125               STORAGE =        2291.0195
       CONSTANT HEAD =           0.0000         CONSTANT HEAD =           0.0000
               WELLS =           0.0000                 WELLS =           0.0000
     HEAD DEP BOUNDS =          17.2712       HEAD DEP BOUNDS =           2.4096

            TOTAL IN =      205129.5781              TOTAL IN =        2293.4292

          OUT:                                     OUT:
          ----                                     ----
             STORAGE =           0.0000               STORAGE =           0.0000
       CONSTANT HEAD =           0.0000         CONSTANT HEAD =           0.0000
               WELLS =           0.0000                 WELLS =           0.0000
     HEAD DEP BOUNDS =      205129.9062       HEAD DEP BOUNDS =        2293.4382

           TOTAL OUT =      205129.9062             TOTAL OUT =        2293.4382

            IN - OUT =          -0.3281              IN - OUT =      -9.0332E-03

 PERCENT DISCREPANCY =          -0.00     PERCENT DISCREPANCY =          -0.00






         TIME SUMMARY AT END OF TIME STEP   32 IN STRESS PERIOD    2
                    SECONDS     MINUTES      HOURS       DAYS        YEARS
                    -----------------------------------------------------------
   TIME STEP LENGTH  86400.      1440.0      24.000      1.0000     2.73785E-03
 STRESS PERIOD TIME 2.76480E+06  46080.      768.00      32.000     8.76112E-02
         TOTAL TIME 2.85120E+06  47520.      792.00      33.000     9.03491E-02
1
 
 SOLVING FOR HEAD 

 OUTPUT CONTROL FOR STRESS PERIOD    2   TIME STEP   33
    SAVE HEAD FOR ALL LAYERS
    SAVE DRAWDOWN FOR ALL LAYERS
    SAVE BUDGET
    PRINT HEAD FOR ALL LAYERS
    PRINT BUDGET
 UBDSV1 SAVING "         STORAGE" ON UNIT  53 AT TIME STEP 33, STRESS PERIOD   2
 UBDSV2 SAVING "   CONSTANT HEAD" ON UNIT  53 AT TIME STEP 33, STRESS PERIOD   2
 UBDSV1 SAVING "FLOW RIGHT FACE " ON UNIT  53 AT TIME STEP 33, STRESS PERIOD   2
 UBDSV1 SAVING "FLOW FRONT FACE " ON UNIT  53 AT TIME STEP 33, STRESS PERIOD   2
 UBDSV1 SAVING "FLOW LOWER FACE " ON UNIT  53 AT TIME STEP 33, STRESS PERIOD   2
1
              HEAD IN LAYER   1 AT END OF TIME STEP  33 IN STRESS PERIOD    2
  ---------------------------------------------------------------------------

            1           2           3           4           5           6           7           8           9          10
 ........................................................................................................................
   1    10.00       9.996       9.986       9.952       9.852       9.576       8.894       7.399       4.572      4.2983E-03
   2    10.00       9.996       9.986       9.952       9.852       9.576       8.894       7.399       4.572      4.2983E-03
   3    10.00       9.996       9.986       9.952       9.852       9.576       8.894       7.399       4.572      4.2983E-03
   4    10.00       9.996       9.986       9.952       9.852       9.576       8.894       7.399       4.572      4.2983E-03
   5    10.00       9.996       9.986       9.952       9.852       9.576       8.894       7.399       4.572      4.2983E-03
   6    10.00       9.996       9.986       9.952       9.852       9.576       8.894       7.399       4.572      4.2983E-03
   7    10.00       9.996       9.986       9.952       9.852       9.576       8.894       7.399       4.572      4.2983E-03
   8    10.00       9.996       9.986       9.952       9.852       9.576       8.894       7.399       4.572      4.2983E-03
   9    10.00       9.996       9.986       9.952       9.852       9.576       8.894       7.399       4.572      4.2983E-03
  10    10.00       9.996       9.986       9.952       9.852       9.576       8.894       7.399       4.572      4.2983E-03
1
              HEAD IN LAYER   2 AT END OF TIME STEP  33 IN STRESS PERIOD    2
  ---------------------------------------------------------------------------

            1           2           3           4           5           6           7           8           9          10
 ........................................................................................................................
   1    10.00       9.996       9.984       9.948       9.842       9.554       8.852       7.336       4.505      9.4758E-03
   2    10.00       9.996       9.984       9.948       9.842       9.554       8.852       7.336       4.505      9.4758E-03
   3    10.00       9.996       9.984       9.948       9.842       9.554       8.852       7.336       4.505      9.4758E-03
   4    10.00       9.996       9.984       9.948       9.842       9.554       8.852       7.336       4.505      9.4758E-03
   5    10.00       9.996       9.984       9.948       9.842       9.554       8.852       7.336       4.505      9.4758E-03
   6    10.00       9.996       9.984       9.948       9.842       9.554       8.852       7.336       4.505      9.4758E-03
   7    10.00       9.996       9.984       9.948       9.842       9.554       8.852       7.336       4.505      9.4758E-03
   8    10.00       9.996       9.984       9.948       9.842       9.554       8.852       7.336       4.505      9.4758E-03
   9    10.00       9.996       9.984       9.948       9.842       9.554       8.852       7.336       4.505      9.4758E-03
  10    10.00       9.996       9.984       9.948       9.842       9.554       8.852       7.336       4.505      9.4758E-03
1
              HEAD IN LAYER   3 AT END OF TIME STEP  33 IN STRESS PERIOD    2
  ---------------------------------------------------------------------------

            1           2           3           4           5           6           7           8           9          10
 ........................................................................................................................
   1    10.00       9.995       9.983       9.945       9.834       9.537       8.818       7.282       4.440      1.0473E-02
   2    10.00       9.995       9.983       9.945       9.834       9.537       8.818       7.282       4.440      1.0473E-02
   3    10.00       9.995       9.983       9.945       9.834       9.537       8.818       7.282       4.440      1.0473E-02
   4    10.00       9.995       9.983       9.945       9.834       9.537       8.818       7.282       4.440      1.0473E-02
   5    10.00       9.995       9.983       9.945       9.834       9.537       8.818       7.282       4.440      1.0473E-02
   6    10.00       9.995       9.983       9.945       9.834       9.537       8.818       7.282       4.440      1.0473E-02
   7    10.00       9.995       9.983       9.945       9.834       9.537       8.818       7.282       4.440      1.0473E-02
   8    10.00       9.995       9.983       9.945       9.834       9.537       8.818       7.282       4.440      1.0473E-02
   9    10.00       9.995       9.983       9.945       9.834       9.537       8.818       7.282       4.440      1.0473E-02
  10    10.00       9.995       9.983       9.945       9.834       9.537       8.818       7.282       4.440      1.0473E-02
1
              HEAD IN LAYER   4 AT END OF TIME STEP  33 IN STRESS PERIOD    2
  ---------------------------------------------------------------------------

            1           2           3           4           5           6           7           8           9          10
 ........................................................................................................................
   1    10.00       9.995       9.982       9.943       9.829       9.525       8.796       7.247       4.398      1.0517E-02
   2    10.00       9.995       9.982       9.943       9.829       9.525       8.796       7.247       4.398      1.0517E-02
   3    10.00       9.995       9.982       9.943       9.829       9.525       8.796       7.247       4.398      1.0517E-02
   4    10.00       9.995       9.982       9.943       9.829       9.525       8.796       7.247       4.398      1.0517E-02
   5    10.00       9.995       9.982       9.943       9.829       9.525       8.796       7.247       4.398      1.0517E-02
   6    10.00       9.995       9.982       9.943       9.829       9.525       8.796       7.247       4.398      1.0517E-02
   7    10.00       9.995       9.982       9.943       9.829       9.525       8.796       7.247       4.398      1.0517E-02
   8    10.00       9.995       9.982       9.943       9.829       9.525       8.796       7.247       4.398      1.0517E-02
   9    10.00       9.995       9.982       9.943       9.829       9.525       8.796       7.247       4.398      1.0517E-02
  10    10.00       9.995       9.982       9.943       9.829       9.525       8.796       7.247       4.398      1.0517E-02
1
              HEAD IN LAYER   5 AT END OF TIME STEP  33 IN STRESS PERIOD    2
  ---------------------------------------------------------------------------

            1           2           3           4           5           6           7           8           9          10
 ........................................................................................................................
   1    10.00       9.995       9.982       9.942       9.826       9.519       8.785       7.229       4.377      1.0485E-02
   2    10.00       9.995       9.982       9.942       9.826       9.519       8.785       7.229       4.377      1.0485E-02
   3    10.00       9.995       9.982       9.942       9.826       9.519       8.785       7.229       4.377      1.0485E-02
   4    10.00       9.995       9.982       9.942       9.826       9.519       8.785       7.229       4.377      1.0485E-02
   5    10.00       9.995       9.982       9.942       9.826       9.519       8.785       7.229       4.377      1.0485E-02
   6    10.00       9.995       9.982       9.942       9.826       9.519       8.785       7.229       4.377      1.0485E-02
   7    10.00       9.995       9.982       9.942       9.826       9.519       8.785       7.229       4.377      1.0485E-02
   8    10.00       9.995       9.982       9.942       9.826       9.519       8.785       7.229       4.377      1.0485E-02
   9    10.00       9.995       9.982       9.942       9.826       9.519       8.785       7.229       4.377      1.0485E-02
  10    10.00       9.995       9.982       9.942       9.826       9.519       8.785       7.229       4.377      1.0485E-02

 HEAD WILL BE SAVED ON UNIT   51 AT END OF TIME STEP   33, STRESS PERIOD    2

 DRAWDOWN WILL BE SAVED ON UNIT   52 AT END OF TIME STEP   33, STRESS PERIOD    2
1
  VOLUMETRIC BUDGET FOR ENTIRE MODEL AT END OF TIME STEP   33, STRESS PERIOD   2
  ------------------------------------------------------------------------------

     CUMULATIVE VOLUMES      L**3       RATES FOR THIS TIME STEP      L**3/T
     ------------------                 ------------------------

           IN:                                      IN:
           ---                                      ---
             STORAGE =      207372.1094               STORAGE =        2259.8000
       CONSTANT HEAD =           0.0000         CONSTANT HEAD =           0.0000
               WELLS =           0.0000                 WELLS =           0.0000
     HEAD DEP BOUNDS =          19.9619       HEAD DEP BOUNDS =           2.6906

            TOTAL IN =      207392.0781              TOTAL IN =        2262.4907

          OUT:                                     OUT:
          ----                                     ----
             STORAGE =           0.0000               STORAGE =           0.0000
       CONSTANT HEAD =           0.0000         CONSTANT HEAD =           0.0000
               WELLS =           0.0000                 WELLS =           0.0000
     HEAD DEP BOUNDS =      207392.3906       HEAD DEP BOUNDS =        2262.4773

           TOTAL OUT =      207392.3906             TOTAL OUT =        2262.4773

            IN - OUT =          -0.3125              IN - OUT =       1.3428E-02

 PERCENT DISCREPANCY =          -0.00     PERCENT DISCREPANCY =           0.00






         TIME SUMMARY AT END OF TIME STEP   33 IN STRESS PERIOD    2
                    SECONDS     MINUTES      HOURS       DAYS        YEARS
                    -----------------------------------------------------------
   TIME STEP LENGTH  86400.      1440.0      24.000      1.0000     2.73785E-03
 STRESS PERIOD TIME 2.85120E+06  47520.      792.00      33.000     9.03491E-02
         TOTAL TIME 2.93760E+06  48960.      816.00      34.000     9.30869E-02
1
 
 SOLVING FOR HEAD 

 OUTPUT CONTROL FOR STRESS PERIOD    2   TIME STEP   34
    SAVE HEAD FOR ALL LAYERS
    SAVE DRAWDOWN FOR ALL LAYERS
    SAVE BUDGET
    PRINT HEAD FOR ALL LAYERS
    PRINT BUDGET
 UBDSV1 SAVING "         STORAGE" ON UNIT  53 AT TIME STEP 34, STRESS PERIOD   2
 UBDSV2 SAVING "   CONSTANT HEAD" ON UNIT  53 AT TIME STEP 34, STRESS PERIOD   2
 UBDSV1 SAVING "FLOW RIGHT FACE " ON UNIT  53 AT TIME STEP 34, STRESS PERIOD   2
 UBDSV1 SAVING "FLOW FRONT FACE " ON UNIT  53 AT TIME STEP 34, STRESS PERIOD   2
 UBDSV1 SAVING "FLOW LOWER FACE " ON UNIT  53 AT TIME STEP 34, STRESS PERIOD   2
1
              HEAD IN LAYER   1 AT END OF TIME STEP  34 IN STRESS PERIOD    2
  ---------------------------------------------------------------------------

            1           2           3           4           5           6           7           8           9          10
 ........................................................................................................................
   1    10.00       9.996       9.984       9.948       9.841       9.553       8.850       7.334       4.510      4.2348E-03
   2    10.00       9.996       9.984       9.948       9.841       9.553       8.850       7.334       4.510      4.2348E-03
   3    10.00       9.996       9.984       9.948       9.841       9.553       8.850       7.334       4.510      4.2348E-03
   4    10.00       9.996       9.984       9.948       9.841       9.553       8.850       7.334       4.510      4.2348E-03
   5    10.00       9.996       9.984       9.948       9.841       9.553       8.850       7.334       4.510      4.2348E-03
   6    10.00       9.996       9.984       9.948       9.841       9.553       8.850       7.334       4.510      4.2348E-03
   7    10.00       9.996       9.984       9.948       9.841       9.553       8.850       7.334       4.510      4.2348E-03
   8    10.00       9.996       9.984       9.948       9.841       9.553       8.850       7.334       4.510      4.2348E-03
   9    10.00       9.996       9.984       9.948       9.841       9.553       8.850       7.334       4.510      4.2348E-03
  10    10.00       9.996       9.984       9.948       9.841       9.553       8.850       7.334       4.510      4.2348E-03
1
              HEAD IN LAYER   2 AT END OF TIME STEP  34 IN STRESS PERIOD    2
  ---------------------------------------------------------------------------

            1           2           3           4           5           6           7           8           9          10
 ........................................................................................................................
   1    10.00       9.995       9.983       9.944       9.831       9.530       8.807       7.272       4.444      9.3485E-03
   2    10.00       9.995       9.983       9.944       9.831       9.530       8.807       7.272       4.444      9.3485E-03
   3    10.00       9.995       9.983       9.944       9.831       9.530       8.807       7.272       4.444      9.3485E-03
   4    10.00       9.995       9.983       9.944       9.831       9.530       8.807       7.272       4.444      9.3485E-03
   5    10.00       9.995       9.983       9.944       9.831       9.530       8.807       7.272       4.444      9.3485E-03
   6    10.00       9.995       9.983       9.944       9.831       9.530       8.807       7.272       4.444      9.3485E-03
   7    10.00       9.995       9.983       9.944       9.831       9.530       8.807       7.272       4.444      9.3485E-03
   8    10.00       9.995       9.983       9.944       9.831       9.530       8.807       7.272       4.444      9.3485E-03
   9    10.00       9.995       9.983       9.944       9.831       9.530       8.807       7.272       4.444      9.3485E-03
  10    10.00       9.995       9.983       9.944       9.831       9.530       8.807       7.272       4.444      9.3485E-03
1
              HEAD IN LAYER   3 AT END OF TIME STEP  34 IN STRESS PERIOD    2
  ---------------------------------------------------------------------------

            1           2           3           4           5           6           7           8           9          10
 ........................................................................................................................
   1    10.00       9.995       9.981       9.940       9.823       9.512       8.774       7.219       4.382      1.0336E-02
   2    10.00       9.995       9.981       9.940       9.823       9.512       8.774       7.219       4.382      1.0336E-02
   3    10.00       9.995       9.981       9.940       9.823       9.512       8.774       7.219       4.382      1.0336E-02
   4    10.00       9.995       9.981       9.940       9.823       9.512       8.774       7.219       4.382      1.0336E-02
   5    10.00       9.995       9.981       9.940       9.823       9.512       8.774       7.219       4.382      1.0336E-02
   6    10.00       9.995       9.981       9.940       9.823       9.512       8.774       7.219       4.382      1.0336E-02
   7    10.00       9.995       9.981       9.940       9.823       9.512       8.774       7.219       4.382      1.0336E-02
   8    10.00       9.995       9.981       9.940       9.823       9.512       8.774       7.219       4.382      1.0336E-02
   9    10.00       9.995       9.981       9.940       9.823       9.512       8.774       7.219       4.382      1.0336E-02
  10    10.00       9.995       9.981       9.940       9.823       9.512       8.774       7.219       4.382      1.0336E-02
1
              HEAD IN LAYER   4 AT END OF TIME STEP  34 IN STRESS PERIOD    2
  ---------------------------------------------------------------------------

            1           2           3           4           5           6           7           8           9          10
 ........................................................................................................................
   1    10.00       9.995       9.981       9.938       9.817       9.500       8.752       7.184       4.341      1.0382E-02
   2    10.00       9.995       9.981       9.938       9.817       9.500       8.752       7.184       4.341      1.0382E-02
   3    10.00       9.995       9.981       9.938       9.817       9.500       8.752       7.184       4.341      1.0382E-02
   4    10.00       9.995       9.981       9.938       9.817       9.500       8.752       7.184       4.341      1.0382E-02
   5    10.00       9.995       9.981       9.938       9.817       9.500       8.752       7.184       4.341      1.0382E-02
   6    10.00       9.995       9.981       9.938       9.817       9.500       8.752       7.184       4.341      1.0382E-02
   7    10.00       9.995       9.981       9.938       9.817       9.500       8.752       7.184       4.341      1.0382E-02
   8    10.00       9.995       9.981       9.938       9.817       9.500       8.752       7.184       4.341      1.0382E-02
   9    10.00       9.995       9.981       9.938       9.817       9.500       8.752       7.184       4.341      1.0382E-02
  10    10.00       9.995       9.981       9.938       9.817       9.500       8.752       7.184       4.341      1.0382E-02
1
              HEAD IN LAYER   5 AT END OF TIME STEP  34 IN STRESS PERIOD    2
  ---------------------------------------------------------------------------

            1           2           3           4           5           6           7           8           9          10
 ........................................................................................................................
   1    10.00       9.995       9.980       9.937       9.815       9.494       8.740       7.167       4.321      1.0351E-02
   2    10.00       9.995       9.980       9.937       9.815       9.494       8.740       7.167       4.321      1.0351E-02
   3    10.00       9.995       9.980       9.937       9.815       9.494       8.740       7.167       4.321      1.0351E-02
   4    10.00       9.995       9.980       9.937       9.815       9.494       8.740       7.167       4.321      1.0351E-02
   5    10.00       9.995       9.980       9.937       9.815       9.494       8.740       7.167       4.321      1.0351E-02
   6    10.00       9.995       9.980       9.937       9.815       9.494       8.740       7.167       4.321      1.0351E-02
   7    10.00       9.995       9.980       9.937       9.815       9.494       8.740       7.167       4.321      1.0351E-02
   8    10.00       9.995       9.980       9.937       9.815       9.494       8.740       7.167       4.321      1.0351E-02
   9    10.00       9.995       9.980       9.937       9.815       9.494       8.740       7.167       4.321      1.0351E-02
  10    10.00       9.995       9.980       9.937       9.815       9.494       8.740       7.167       4.321      1.0351E-02

 HEAD WILL BE SAVED ON UNIT   51 AT END OF TIME STEP   34, STRESS PERIOD    2

 DRAWDOWN WILL BE SAVED ON UNIT   52 AT END OF TIME STEP   34, STRESS PERIOD    2
1
  VOLUMETRIC BUDGET FOR ENTIRE MODEL AT END OF TIME STEP   34, STRESS PERIOD   2
  ------------------------------------------------------------------------------

     CUMULATIVE VOLUMES      L**3       RATES FOR THIS TIME STEP      L**3/T
     ------------------                 ------------------------

           IN:                                      IN:
           ---                                      ---
             STORAGE =      209601.7500               STORAGE =        2229.6360
       CONSTANT HEAD =           0.0000         CONSTANT HEAD =           0.0000
               WELLS =           0.0000                 WELLS =           0.0000
     HEAD DEP BOUNDS =          22.9559       HEAD DEP BOUNDS =           2.9940

            TOTAL IN =      209624.7031              TOTAL IN =        2232.6299

          OUT:                                     OUT:
          ----                                     ----
             STORAGE =           0.0000               STORAGE =           0.0000
       CONSTANT HEAD =           0.0000         CONSTANT HEAD =           0.0000
               WELLS =           0.0000                 WELLS =           0.0000
     HEAD DEP BOUNDS =      209625.0312       HEAD DEP BOUNDS =        2232.6328

           TOTAL OUT =      209625.0312             TOTAL OUT =        2232.6328

            IN - OUT =          -0.3281              IN - OUT =      -2.9297E-03

 PERCENT DISCREPANCY =          -0.00     PERCENT DISCREPANCY =          -0.00






         TIME SUMMARY AT END OF TIME STEP   34 IN STRESS PERIOD    2
                    SECONDS     MINUTES      HOURS       DAYS        YEARS
                    -----------------------------------------------------------
   TIME STEP LENGTH  86400.      1440.0      24.000      1.0000     2.73785E-03
 STRESS PERIOD TIME 2.93760E+06  48960.      816.00      34.000     9.30869E-02
         TOTAL TIME 3.02400E+06  50400.      840.00      35.000     9.58248E-02
1
 
 SOLVING FOR HEAD 

 OUTPUT CONTROL FOR STRESS PERIOD    2   TIME STEP   35
    SAVE HEAD FOR ALL LAYERS
    SAVE DRAWDOWN FOR ALL LAYERS
    SAVE BUDGET
    PRINT HEAD FOR ALL LAYERS
    PRINT BUDGET
 UBDSV1 SAVING "         STORAGE" ON UNIT  53 AT TIME STEP 35, STRESS PERIOD   2
 UBDSV2 SAVING "   CONSTANT HEAD" ON UNIT  53 AT TIME STEP 35, STRESS PERIOD   2
 UBDSV1 SAVING "FLOW RIGHT FACE " ON UNIT  53 AT TIME STEP 35, STRESS PERIOD   2
 UBDSV1 SAVING "FLOW FRONT FACE " ON UNIT  53 AT TIME STEP 35, STRESS PERIOD   2
 UBDSV1 SAVING "FLOW LOWER FACE " ON UNIT  53 AT TIME STEP 35, STRESS PERIOD   2
1
              HEAD IN LAYER   1 AT END OF TIME STEP  35 IN STRESS PERIOD    2
  ---------------------------------------------------------------------------

            1           2           3           4           5           6           7           8           9          10
 ........................................................................................................................
   1    10.00       9.995       9.982       9.943       9.830       9.528       8.805       7.271       4.449      4.1740E-03
   2    10.00       9.995       9.982       9.943       9.830       9.528       8.805       7.271       4.449      4.1740E-03
   3    10.00       9.995       9.982       9.943       9.830       9.528       8.805       7.271       4.449      4.1740E-03
   4    10.00       9.995       9.982       9.943       9.830       9.528       8.805       7.271       4.449      4.1740E-03
   5    10.00       9.995       9.982       9.943       9.830       9.528       8.805       7.271       4.449      4.1740E-03
   6    10.00       9.995       9.982       9.943       9.830       9.528       8.805       7.271       4.449      4.1740E-03
   7    10.00       9.995       9.982       9.943       9.830       9.528       8.805       7.271       4.449      4.1740E-03
   8    10.00       9.995       9.982       9.943       9.830       9.528       8.805       7.271       4.449      4.1740E-03
   9    10.00       9.995       9.982       9.943       9.830       9.528       8.805       7.271       4.449      4.1740E-03
  10    10.00       9.995       9.982       9.943       9.830       9.528       8.805       7.271       4.449      4.1740E-03
1
              HEAD IN LAYER   2 AT END OF TIME STEP  35 IN STRESS PERIOD    2
  ---------------------------------------------------------------------------

            1           2           3           4           5           6           7           8           9          10
 ........................................................................................................................
   1    10.00       9.995       9.981       9.939       9.819       9.505       8.763       7.210       4.387      9.2259E-03
   2    10.00       9.995       9.981       9.939       9.819       9.505       8.763       7.210       4.387      9.2259E-03
   3    10.00       9.995       9.981       9.939       9.819       9.505       8.763       7.210       4.387      9.2259E-03
   4    10.00       9.995       9.981       9.939       9.819       9.505       8.763       7.210       4.387      9.2259E-03
   5    10.00       9.995       9.981       9.939       9.819       9.505       8.763       7.210       4.387      9.2259E-03
   6    10.00       9.995       9.981       9.939       9.819       9.505       8.763       7.210       4.387      9.2259E-03
   7    10.00       9.995       9.981       9.939       9.819       9.505       8.763       7.210       4.387      9.2259E-03
   8    10.00       9.995       9.981       9.939       9.819       9.505       8.763       7.210       4.387      9.2259E-03
   9    10.00       9.995       9.981       9.939       9.819       9.505       8.763       7.210       4.387      9.2259E-03
  10    10.00       9.995       9.981       9.939       9.819       9.505       8.763       7.210       4.387      9.2259E-03
1
              HEAD IN LAYER   3 AT END OF TIME STEP  35 IN STRESS PERIOD    2
  ---------------------------------------------------------------------------

            1           2           3           4           5           6           7           8           9          10
 ........................................................................................................................
   1    10.00       9.994       9.980       9.936       9.811       9.487       8.730       7.158       4.326      1.0204E-02
   2    10.00       9.994       9.980       9.936       9.811       9.487       8.730       7.158       4.326      1.0204E-02
   3    10.00       9.994       9.980       9.936       9.811       9.487       8.730       7.158       4.326      1.0204E-02
   4    10.00       9.994       9.980       9.936       9.811       9.487       8.730       7.158       4.326      1.0204E-02
   5    10.00       9.994       9.980       9.936       9.811       9.487       8.730       7.158       4.326      1.0204E-02
   6    10.00       9.994       9.980       9.936       9.811       9.487       8.730       7.158       4.326      1.0204E-02
   7    10.00       9.994       9.980       9.936       9.811       9.487       8.730       7.158       4.326      1.0204E-02
   8    10.00       9.994       9.980       9.936       9.811       9.487       8.730       7.158       4.326      1.0204E-02
   9    10.00       9.994       9.980       9.936       9.811       9.487       8.730       7.158       4.326      1.0204E-02
  10    10.00       9.994       9.980       9.936       9.811       9.487       8.730       7.158       4.326      1.0204E-02
1
              HEAD IN LAYER   4 AT END OF TIME STEP  35 IN STRESS PERIOD    2
  ---------------------------------------------------------------------------

            1           2           3           4           5           6           7           8           9          10
 ........................................................................................................................
   1    10.00       9.994       9.979       9.933       9.805       9.475       8.708       7.124       4.287      1.0251E-02
   2    10.00       9.994       9.979       9.933       9.805       9.475       8.708       7.124       4.287      1.0251E-02
   3    10.00       9.994       9.979       9.933       9.805       9.475       8.708       7.124       4.287      1.0251E-02
   4    10.00       9.994       9.979       9.933       9.805       9.475       8.708       7.124       4.287      1.0251E-02
   5    10.00       9.994       9.979       9.933       9.805       9.475       8.708       7.124       4.287      1.0251E-02
   6    10.00       9.994       9.979       9.933       9.805       9.475       8.708       7.124       4.287      1.0251E-02
   7    10.00       9.994       9.979       9.933       9.805       9.475       8.708       7.124       4.287      1.0251E-02
   8    10.00       9.994       9.979       9.933       9.805       9.475       8.708       7.124       4.287      1.0251E-02
   9    10.00       9.994       9.979       9.933       9.805       9.475       8.708       7.124       4.287      1.0251E-02
  10    10.00       9.994       9.979       9.933       9.805       9.475       8.708       7.124       4.287      1.0251E-02
1
              HEAD IN LAYER   5 AT END OF TIME STEP  35 IN STRESS PERIOD    2
  ---------------------------------------------------------------------------

            1           2           3           4           5           6           7           8           9          10
 ........................................................................................................................
   1    10.00       9.994       9.978       9.932       9.803       9.469       8.696       7.107       4.267      1.0222E-02
   2    10.00       9.994       9.978       9.932       9.803       9.469       8.696       7.107       4.267      1.0222E-02
   3    10.00       9.994       9.978       9.932       9.803       9.469       8.696       7.107       4.267      1.0222E-02
   4    10.00       9.994       9.978       9.932       9.803       9.469       8.696       7.107       4.267      1.0222E-02
   5    10.00       9.994       9.978       9.932       9.803       9.469       8.696       7.107       4.267      1.0222E-02
   6    10.00       9.994       9.978       9.932       9.803       9.469       8.696       7.107       4.267      1.0222E-02
   7    10.00       9.994       9.978       9.932       9.803       9.469       8.696       7.107       4.267      1.0222E-02
   8    10.00       9.994       9.978       9.932       9.803       9.469       8.696       7.107       4.267      1.0222E-02
   9    10.00       9.994       9.978       9.932       9.803       9.469       8.696       7.107       4.267      1.0222E-02
  10    10.00       9.994       9.978       9.932       9.803       9.469       8.696       7.107       4.267      1.0222E-02

 HEAD WILL BE SAVED ON UNIT   51 AT END OF TIME STEP   35, STRESS PERIOD    2

 DRAWDOWN WILL BE SAVED ON UNIT   52 AT END OF TIME STEP   35, STRESS PERIOD    2
1
  VOLUMETRIC BUDGET FOR ENTIRE MODEL AT END OF TIME STEP   35, STRESS PERIOD   2
  ------------------------------------------------------------------------------

     CUMULATIVE VOLUMES      L**3       RATES FOR THIS TIME STEP      L**3/T
     ------------------                 ------------------------

           IN:                                      IN:
           ---                                      ---
             STORAGE =      211802.2812               STORAGE =        2200.5312
       CONSTANT HEAD =           0.0000         CONSTANT HEAD =           0.0000
               WELLS =           0.0000                 WELLS =           0.0000
     HEAD DEP BOUNDS =          26.2769       HEAD DEP BOUNDS =           3.3210

            TOTAL IN =      211828.5625              TOTAL IN =        2203.8523

          OUT:                                     OUT:
          ----                                     ----
             STORAGE =           0.0000               STORAGE =           0.0000
       CONSTANT HEAD =           0.0000         CONSTANT HEAD =           0.0000
               WELLS =           0.0000                 WELLS =           0.0000
     HEAD DEP BOUNDS =      211828.8906       HEAD DEP BOUNDS =        2203.8613

           TOTAL OUT =      211828.8906             TOTAL OUT =        2203.8613

            IN - OUT =          -0.3281              IN - OUT =      -9.0332E-03

 PERCENT DISCREPANCY =          -0.00     PERCENT DISCREPANCY =          -0.00






         TIME SUMMARY AT END OF TIME STEP   35 IN STRESS PERIOD    2
                    SECONDS     MINUTES      HOURS       DAYS        YEARS
                    -----------------------------------------------------------
   TIME STEP LENGTH  86400.      1440.0      24.000      1.0000     2.73785E-03
 STRESS PERIOD TIME 3.02400E+06  50400.      840.00      35.000     9.58248E-02
         TOTAL TIME 3.11040E+06  51840.      864.00      36.000     9.85626E-02
1
 
 SOLVING FOR HEAD 

 OUTPUT CONTROL FOR STRESS PERIOD    2   TIME STEP   36
    SAVE HEAD FOR ALL LAYERS
    SAVE DRAWDOWN FOR ALL LAYERS
    SAVE BUDGET
    PRINT HEAD FOR ALL LAYERS
    PRINT BUDGET
 UBDSV1 SAVING "         STORAGE" ON UNIT  53 AT TIME STEP 36, STRESS PERIOD   2
 UBDSV2 SAVING "   CONSTANT HEAD" ON UNIT  53 AT TIME STEP 36, STRESS PERIOD   2
 UBDSV1 SAVING "FLOW RIGHT FACE " ON UNIT  53 AT TIME STEP 36, STRESS PERIOD   2
 UBDSV1 SAVING "FLOW FRONT FACE " ON UNIT  53 AT TIME STEP 36, STRESS PERIOD   2
 UBDSV1 SAVING "FLOW LOWER FACE " ON UNIT  53 AT TIME STEP 36, STRESS PERIOD   2
1
              HEAD IN LAYER   1 AT END OF TIME STEP  36 IN STRESS PERIOD    2
  ---------------------------------------------------------------------------

            1           2           3           4           5           6           7           8           9          10
 ........................................................................................................................
   1    10.00       9.995       9.981       9.938       9.818       9.504       8.761       7.208       4.391      4.1152E-03
   2    10.00       9.995       9.981       9.938       9.818       9.504       8.761       7.208       4.391      4.1152E-03
   3    10.00       9.995       9.981       9.938       9.818       9.504       8.761       7.208       4.391      4.1152E-03
   4    10.00       9.995       9.981       9.938       9.818       9.504       8.761       7.208       4.391      4.1152E-03
   5    10.00       9.995       9.981       9.938       9.818       9.504       8.761       7.208       4.391      4.1152E-03
   6    10.00       9.995       9.981       9.938       9.818       9.504       8.761       7.208       4.391      4.1152E-03
   7    10.00       9.995       9.981       9.938       9.818       9.504       8.761       7.208       4.391      4.1152E-03
   8    10.00       9.995       9.981       9.938       9.818       9.504       8.761       7.208       4.391      4.1152E-03
   9    10.00       9.995       9.981       9.938       9.818       9.504       8.761       7.208       4.391      4.1152E-03
  10    10.00       9.995       9.981       9.938       9.818       9.504       8.761       7.208       4.391      4.1152E-03
1
              HEAD IN LAYER   2 AT END OF TIME STEP  36 IN STRESS PERIOD    2
  ---------------------------------------------------------------------------

            1           2           3           4           5           6           7           8           9          10
 ........................................................................................................................
   1    10.00       9.994       9.979       9.934       9.807       9.480       8.719       7.149       4.331      9.1076E-03
   2    10.00       9.994       9.979       9.934       9.807       9.480       8.719       7.149       4.331      9.1076E-03
   3    10.00       9.994       9.979       9.934       9.807       9.480       8.719       7.149       4.331      9.1076E-03
   4    10.00       9.994       9.979       9.934       9.807       9.480       8.719       7.149       4.331      9.1076E-03
   5    10.00       9.994       9.979       9.934       9.807       9.480       8.719       7.149       4.331      9.1076E-03
   6    10.00       9.994       9.979       9.934       9.807       9.480       8.719       7.149       4.331      9.1076E-03
   7    10.00       9.994       9.979       9.934       9.807       9.480       8.719       7.149       4.331      9.1076E-03
   8    10.00       9.994       9.979       9.934       9.807       9.480       8.719       7.149       4.331      9.1076E-03
   9    10.00       9.994       9.979       9.934       9.807       9.480       8.719       7.149       4.331      9.1076E-03
  10    10.00       9.994       9.979       9.934       9.807       9.480       8.719       7.149       4.331      9.1076E-03
1
              HEAD IN LAYER   3 AT END OF TIME STEP  36 IN STRESS PERIOD    2
  ---------------------------------------------------------------------------

            1           2           3           4           5           6           7           8           9          10
 ........................................................................................................................
   1    10.00       9.994       9.978       9.930       9.799       9.462       8.686       7.098       4.272      1.0077E-02
   2    10.00       9.994       9.978       9.930       9.799       9.462       8.686       7.098       4.272      1.0077E-02
   3    10.00       9.994       9.978       9.930       9.799       9.462       8.686       7.098       4.272      1.0077E-02
   4    10.00       9.994       9.978       9.930       9.799       9.462       8.686       7.098       4.272      1.0077E-02
   5    10.00       9.994       9.978       9.930       9.799       9.462       8.686       7.098       4.272      1.0077E-02
   6    10.00       9.994       9.978       9.930       9.799       9.462       8.686       7.098       4.272      1.0077E-02
   7    10.00       9.994       9.978       9.930       9.799       9.462       8.686       7.098       4.272      1.0077E-02
   8    10.00       9.994       9.978       9.930       9.799       9.462       8.686       7.098       4.272      1.0077E-02
   9    10.00       9.994       9.978       9.930       9.799       9.462       8.686       7.098       4.272      1.0077E-02
  10    10.00       9.994       9.978       9.930       9.799       9.462       8.686       7.098       4.272      1.0077E-02
1
              HEAD IN LAYER   4 AT END OF TIME STEP  36 IN STRESS PERIOD    2
  ---------------------------------------------------------------------------

            1           2           3           4           5           6           7           8           9          10
 ........................................................................................................................
   1    10.00       9.993       9.977       9.928       9.793       9.450       8.664       7.064       4.234      1.0125E-02
   2    10.00       9.993       9.977       9.928       9.793       9.450       8.664       7.064       4.234      1.0125E-02
   3    10.00       9.993       9.977       9.928       9.793       9.450       8.664       7.064       4.234      1.0125E-02
   4    10.00       9.993       9.977       9.928       9.793       9.450       8.664       7.064       4.234      1.0125E-02
   5    10.00       9.993       9.977       9.928       9.793       9.450       8.664       7.064       4.234      1.0125E-02
   6    10.00       9.993       9.977       9.928       9.793       9.450       8.664       7.064       4.234      1.0125E-02
   7    10.00       9.993       9.977       9.928       9.793       9.450       8.664       7.064       4.234      1.0125E-02
   8    10.00       9.993       9.977       9.928       9.793       9.450       8.664       7.064       4.234      1.0125E-02
   9    10.00       9.993       9.977       9.928       9.793       9.450       8.664       7.064       4.234      1.0125E-02
  10    10.00       9.993       9.977       9.928       9.793       9.450       8.664       7.064       4.234      1.0125E-02
1
              HEAD IN LAYER   5 AT END OF TIME STEP  36 IN STRESS PERIOD    2
  ---------------------------------------------------------------------------

            1           2           3           4           5           6           7           8           9          10
 ........................................................................................................................
   1    10.00       9.993       9.976       9.927       9.790       9.444       8.653       7.047       4.215      1.0097E-02
   2    10.00       9.993       9.976       9.927       9.790       9.444       8.653       7.047       4.215      1.0097E-02
   3    10.00       9.993       9.976       9.927       9.790       9.444       8.653       7.047       4.215      1.0097E-02
   4    10.00       9.993       9.976       9.927       9.790       9.444       8.653       7.047       4.215      1.0097E-02
   5    10.00       9.993       9.976       9.927       9.790       9.444       8.653       7.047       4.215      1.0097E-02
   6    10.00       9.993       9.976       9.927       9.790       9.444       8.653       7.047       4.215      1.0097E-02
   7    10.00       9.993       9.976       9.927       9.790       9.444       8.653       7.047       4.215      1.0097E-02
   8    10.00       9.993       9.976       9.927       9.790       9.444       8.653       7.047       4.215      1.0097E-02
   9    10.00       9.993       9.976       9.927       9.790       9.444       8.653       7.047       4.215      1.0097E-02
  10    10.00       9.993       9.976       9.927       9.790       9.444       8.653       7.047       4.215      1.0097E-02

 HEAD WILL BE SAVED ON UNIT   51 AT END OF TIME STEP   36, STRESS PERIOD    2

 DRAWDOWN WILL BE SAVED ON UNIT   52 AT END OF TIME STEP   36, STRESS PERIOD    2
1
  VOLUMETRIC BUDGET FOR ENTIRE MODEL AT END OF TIME STEP   36, STRESS PERIOD   2
  ------------------------------------------------------------------------------

     CUMULATIVE VOLUMES      L**3       RATES FOR THIS TIME STEP      L**3/T
     ------------------                 ------------------------

           IN:                                      IN:
           ---                                      ---
             STORAGE =      213974.6719               STORAGE =        2172.3882
       CONSTANT HEAD =           0.0000         CONSTANT HEAD =           0.0000
               WELLS =           0.0000                 WELLS =           0.0000
     HEAD DEP BOUNDS =          29.9490       HEAD DEP BOUNDS =           3.6721

            TOTAL IN =      214004.6250              TOTAL IN =        2176.0603

          OUT:                                     OUT:
          ----                                     ----
             STORAGE =           0.0000               STORAGE =           0.0000
       CONSTANT HEAD =           0.0000         CONSTANT HEAD =           0.0000
               WELLS =           0.0000                 WELLS =           0.0000
     HEAD DEP BOUNDS =      214004.9688       HEAD DEP BOUNDS =        2176.0833

           TOTAL OUT =      214004.9688             TOTAL OUT =        2176.0833

            IN - OUT =          -0.3438              IN - OUT =      -2.2949E-02

 PERCENT DISCREPANCY =          -0.00     PERCENT DISCREPANCY =          -0.00






         TIME SUMMARY AT END OF TIME STEP   36 IN STRESS PERIOD    2
                    SECONDS     MINUTES      HOURS       DAYS        YEARS
                    -----------------------------------------------------------
   TIME STEP LENGTH  86400.      1440.0      24.000      1.0000     2.73785E-03
 STRESS PERIOD TIME 3.11040E+06  51840.      864.00      36.000     9.85626E-02
         TOTAL TIME 3.19680E+06  53280.      888.00      37.000     0.10130    
1
 
 SOLVING FOR HEAD 

 OUTPUT CONTROL FOR STRESS PERIOD    2   TIME STEP   37
    SAVE HEAD FOR ALL LAYERS
    SAVE DRAWDOWN FOR ALL LAYERS
    SAVE BUDGET
    PRINT HEAD FOR ALL LAYERS
    PRINT BUDGET
 UBDSV1 SAVING "         STORAGE" ON UNIT  53 AT TIME STEP 37, STRESS PERIOD   2
 UBDSV2 SAVING "   CONSTANT HEAD" ON UNIT  53 AT TIME STEP 37, STRESS PERIOD   2
 UBDSV1 SAVING "FLOW RIGHT FACE " ON UNIT  53 AT TIME STEP 37, STRESS PERIOD   2
 UBDSV1 SAVING "FLOW FRONT FACE " ON UNIT  53 AT TIME STEP 37, STRESS PERIOD   2
 UBDSV1 SAVING "FLOW LOWER FACE " ON UNIT  53 AT TIME STEP 37, STRESS PERIOD   2
1
              HEAD IN LAYER   1 AT END OF TIME STEP  37 IN STRESS PERIOD    2
  ---------------------------------------------------------------------------

            1           2           3           4           5           6           7           8           9          10
 ........................................................................................................................
   1    10.00       9.994       9.979       9.933       9.806       9.479       8.717       7.147       4.335      4.0586E-03
   2    10.00       9.994       9.979       9.933       9.806       9.479       8.717       7.147       4.335      4.0586E-03
   3    10.00       9.994       9.979       9.933       9.806       9.479       8.717       7.147       4.335      4.0586E-03
   4    10.00       9.994       9.979       9.933       9.806       9.479       8.717       7.147       4.335      4.0586E-03
   5    10.00       9.994       9.979       9.933       9.806       9.479       8.717       7.147       4.335      4.0586E-03
   6    10.00       9.994       9.979       9.933       9.806       9.479       8.717       7.147       4.335      4.0586E-03
   7    10.00       9.994       9.979       9.933       9.806       9.479       8.717       7.147       4.335      4.0586E-03
   8    10.00       9.994       9.979       9.933       9.806       9.479       8.717       7.147       4.335      4.0586E-03
   9    10.00       9.994       9.979       9.933       9.806       9.479       8.717       7.147       4.335      4.0586E-03
  10    10.00       9.994       9.979       9.933       9.806       9.479       8.717       7.147       4.335      4.0586E-03
1
              HEAD IN LAYER   2 AT END OF TIME STEP  37 IN STRESS PERIOD    2
  ---------------------------------------------------------------------------

            1           2           3           4           5           6           7           8           9          10
 ........................................................................................................................
   1    10.00       9.993       9.977       9.929       9.795       9.455       8.676       7.089       4.277      8.9935E-03
   2    10.00       9.993       9.977       9.929       9.795       9.455       8.676       7.089       4.277      8.9935E-03
   3    10.00       9.993       9.977       9.929       9.795       9.455       8.676       7.089       4.277      8.9935E-03
   4    10.00       9.993       9.977       9.929       9.795       9.455       8.676       7.089       4.277      8.9935E-03
   5    10.00       9.993       9.977       9.929       9.795       9.455       8.676       7.089       4.277      8.9935E-03
   6    10.00       9.993       9.977       9.929       9.795       9.455       8.676       7.089       4.277      8.9935E-03
   7    10.00       9.993       9.977       9.929       9.795       9.455       8.676       7.089       4.277      8.9935E-03
   8    10.00       9.993       9.977       9.929       9.795       9.455       8.676       7.089       4.277      8.9935E-03
   9    10.00       9.993       9.977       9.929       9.795       9.455       8.676       7.089       4.277      8.9935E-03
  10    10.00       9.993       9.977       9.929       9.795       9.455       8.676       7.089       4.277      8.9935E-03
1
              HEAD IN LAYER   3 AT END OF TIME STEP  37 IN STRESS PERIOD    2
  ---------------------------------------------------------------------------

            1           2           3           4           5           6           7           8           9          10
 ........................................................................................................................
   1    10.00       9.993       9.976       9.925       9.786       9.437       8.643       7.039       4.220      9.9536E-03
   2    10.00       9.993       9.976       9.925       9.786       9.437       8.643       7.039       4.220      9.9536E-03
   3    10.00       9.993       9.976       9.925       9.786       9.437       8.643       7.039       4.220      9.9536E-03
   4    10.00       9.993       9.976       9.925       9.786       9.437       8.643       7.039       4.220      9.9536E-03
   5    10.00       9.993       9.976       9.925       9.786       9.437       8.643       7.039       4.220      9.9536E-03
   6    10.00       9.993       9.976       9.925       9.786       9.437       8.643       7.039       4.220      9.9536E-03
   7    10.00       9.993       9.976       9.925       9.786       9.437       8.643       7.039       4.220      9.9536E-03
   8    10.00       9.993       9.976       9.925       9.786       9.437       8.643       7.039       4.220      9.9536E-03
   9    10.00       9.993       9.976       9.925       9.786       9.437       8.643       7.039       4.220      9.9536E-03
  10    10.00       9.993       9.976       9.925       9.786       9.437       8.643       7.039       4.220      9.9536E-03
1
              HEAD IN LAYER   4 AT END OF TIME STEP  37 IN STRESS PERIOD    2
  ---------------------------------------------------------------------------

            1           2           3           4           5           6           7           8           9          10
 ........................................................................................................................
   1    10.00       9.993       9.975       9.923       9.781       9.425       8.621       7.006       4.183      1.0003E-02
   2    10.00       9.993       9.975       9.923       9.781       9.425       8.621       7.006       4.183      1.0003E-02
   3    10.00       9.993       9.975       9.923       9.781       9.425       8.621       7.006       4.183      1.0003E-02
   4    10.00       9.993       9.975       9.923       9.781       9.425       8.621       7.006       4.183      1.0003E-02
   5    10.00       9.993       9.975       9.923       9.781       9.425       8.621       7.006       4.183      1.0003E-02
   6    10.00       9.993       9.975       9.923       9.781       9.425       8.621       7.006       4.183      1.0003E-02
   7    10.00       9.993       9.975       9.923       9.781       9.425       8.621       7.006       4.183      1.0003E-02
   8    10.00       9.993       9.975       9.923       9.781       9.425       8.621       7.006       4.183      1.0003E-02
   9    10.00       9.993       9.975       9.923       9.781       9.425       8.621       7.006       4.183      1.0003E-02
  10    10.00       9.993       9.975       9.923       9.781       9.425       8.621       7.006       4.183      1.0003E-02
1
              HEAD IN LAYER   5 AT END OF TIME STEP  37 IN STRESS PERIOD    2
  ---------------------------------------------------------------------------

            1           2           3           4           5           6           7           8           9          10
 ........................................................................................................................
   1    10.00       9.993       9.974       9.921       9.778       9.419       8.609       6.990       4.165      9.9764E-03
   2    10.00       9.993       9.974       9.921       9.778       9.419       8.609       6.990       4.165      9.9764E-03
   3    10.00       9.993       9.974       9.921       9.778       9.419       8.609       6.990       4.165      9.9764E-03
   4    10.00       9.993       9.974       9.921       9.778       9.419       8.609       6.990       4.165      9.9764E-03
   5    10.00       9.993       9.974       9.921       9.778       9.419       8.609       6.990       4.165      9.9764E-03
   6    10.00       9.993       9.974       9.921       9.778       9.419       8.609       6.990       4.165      9.9764E-03
   7    10.00       9.993       9.974       9.921       9.778       9.419       8.609       6.990       4.165      9.9764E-03
   8    10.00       9.993       9.974       9.921       9.778       9.419       8.609       6.990       4.165      9.9764E-03
   9    10.00       9.993       9.974       9.921       9.778       9.419       8.609       6.990       4.165      9.9764E-03
  10    10.00       9.993       9.974       9.921       9.778       9.419       8.609       6.990       4.165      9.9764E-03

 HEAD WILL BE SAVED ON UNIT   51 AT END OF TIME STEP   37, STRESS PERIOD    2

 DRAWDOWN WILL BE SAVED ON UNIT   52 AT END OF TIME STEP   37, STRESS PERIOD    2
1
  VOLUMETRIC BUDGET FOR ENTIRE MODEL AT END OF TIME STEP   37, STRESS PERIOD   2
  ------------------------------------------------------------------------------

     CUMULATIVE VOLUMES      L**3       RATES FOR THIS TIME STEP      L**3/T
     ------------------                 ------------------------

           IN:                                      IN:
           ---                                      ---
             STORAGE =      216119.8750               STORAGE =        2145.1963
       CONSTANT HEAD =           0.0000         CONSTANT HEAD =           0.0000
               WELLS =           0.0000                 WELLS =           0.0000
     HEAD DEP BOUNDS =          33.9974       HEAD DEP BOUNDS =           4.0484

            TOTAL IN =      216153.8750              TOTAL IN =        2149.2446

          OUT:                                     OUT:
          ----                                     ----
             STORAGE =           0.0000               STORAGE =           0.0000
       CONSTANT HEAD =           0.0000         CONSTANT HEAD =           0.0000
               WELLS =           0.0000                 WELLS =           0.0000
     HEAD DEP BOUNDS =      216154.2344       HEAD DEP BOUNDS =        2149.2627

           TOTAL OUT =      216154.2344             TOTAL OUT =        2149.2627

            IN - OUT =          -0.3594              IN - OUT =      -1.8066E-02

 PERCENT DISCREPANCY =          -0.00     PERCENT DISCREPANCY =          -0.00






         TIME SUMMARY AT END OF TIME STEP   37 IN STRESS PERIOD    2
                    SECONDS     MINUTES      HOURS       DAYS        YEARS
                    -----------------------------------------------------------
   TIME STEP LENGTH  86400.      1440.0      24.000      1.0000     2.73785E-03
 STRESS PERIOD TIME 3.19680E+06  53280.      888.00      37.000     0.10130    
         TOTAL TIME 3.28320E+06  54720.      912.00      38.000     0.10404    
1
 
 SOLVING FOR HEAD 

 OUTPUT CONTROL FOR STRESS PERIOD    2   TIME STEP   38
    SAVE HEAD FOR ALL LAYERS
    SAVE DRAWDOWN FOR ALL LAYERS
    SAVE BUDGET
    PRINT HEAD FOR ALL LAYERS
    PRINT BUDGET
 UBDSV1 SAVING "         STORAGE" ON UNIT  53 AT TIME STEP 38, STRESS PERIOD   2
 UBDSV2 SAVING "   CONSTANT HEAD" ON UNIT  53 AT TIME STEP 38, STRESS PERIOD   2
 UBDSV1 SAVING "FLOW RIGHT FACE " ON UNIT  53 AT TIME STEP 38, STRESS PERIOD   2
 UBDSV1 SAVING "FLOW FRONT FACE " ON UNIT  53 AT TIME STEP 38, STRESS PERIOD   2
 UBDSV1 SAVING "FLOW LOWER FACE " ON UNIT  53 AT TIME STEP 38, STRESS PERIOD   2
1
              HEAD IN LAYER   1 AT END OF TIME STEP  38 IN STRESS PERIOD    2
  ---------------------------------------------------------------------------

            1           2           3           4           5           6           7           8           9          10
 ........................................................................................................................
   1    10.00       9.993       9.977       9.928       9.794       9.454       8.674       7.088       4.281      4.0040E-03
   2    10.00       9.993       9.977       9.928       9.794       9.454       8.674       7.088       4.281      4.0040E-03
   3    10.00       9.993       9.977       9.928       9.794       9.454       8.674       7.088       4.281      4.0040E-03
   4    10.00       9.993       9.977       9.928       9.794       9.454       8.674       7.088       4.281      4.0040E-03
   5    10.00       9.993       9.977       9.928       9.794       9.454       8.674       7.088       4.281      4.0040E-03
   6    10.00       9.993       9.977       9.928       9.794       9.454       8.674       7.088       4.281      4.0040E-03
   7    10.00       9.993       9.977       9.928       9.794       9.454       8.674       7.088       4.281      4.0040E-03
   8    10.00       9.993       9.977       9.928       9.794       9.454       8.674       7.088       4.281      4.0040E-03
   9    10.00       9.993       9.977       9.928       9.794       9.454       8.674       7.088       4.281      4.0040E-03
  10    10.00       9.993       9.977       9.928       9.794       9.454       8.674       7.088       4.281      4.0040E-03
1
              HEAD IN LAYER   2 AT END OF TIME STEP  38 IN STRESS PERIOD    2
  ---------------------------------------------------------------------------

            1           2           3           4           5           6           7           8           9          10
 ........................................................................................................................
   1    10.00       9.993       9.975       9.923       9.783       9.430       8.632       7.030       4.225      8.8832E-03
   2    10.00       9.993       9.975       9.923       9.783       9.430       8.632       7.030       4.225      8.8832E-03
   3    10.00       9.993       9.975       9.923       9.783       9.430       8.632       7.030       4.225      8.8832E-03
   4    10.00       9.993       9.975       9.923       9.783       9.430       8.632       7.030       4.225      8.8832E-03
   5    10.00       9.993       9.975       9.923       9.783       9.430       8.632       7.030       4.225      8.8832E-03
   6    10.00       9.993       9.975       9.923       9.783       9.430       8.632       7.030       4.225      8.8832E-03
   7    10.00       9.993       9.975       9.923       9.783       9.430       8.632       7.030       4.225      8.8832E-03
   8    10.00       9.993       9.975       9.923       9.783       9.430       8.632       7.030       4.225      8.8832E-03
   9    10.00       9.993       9.975       9.923       9.783       9.430       8.632       7.030       4.225      8.8832E-03
  10    10.00       9.993       9.975       9.923       9.783       9.430       8.632       7.030       4.225      8.8832E-03
1
              HEAD IN LAYER   3 AT END OF TIME STEP  38 IN STRESS PERIOD    2
  ---------------------------------------------------------------------------

            1           2           3           4           5           6           7           8           9          10
 ........................................................................................................................
   1    10.00       9.992       9.973       9.920       9.774       9.412       8.599       6.981       4.170      9.8346E-03
   2    10.00       9.992       9.973       9.920       9.774       9.412       8.599       6.981       4.170      9.8346E-03
   3    10.00       9.992       9.973       9.920       9.774       9.412       8.599       6.981       4.170      9.8346E-03
   4    10.00       9.992       9.973       9.920       9.774       9.412       8.599       6.981       4.170      9.8346E-03
   5    10.00       9.992       9.973       9.920       9.774       9.412       8.599       6.981       4.170      9.8346E-03
   6    10.00       9.992       9.973       9.920       9.774       9.412       8.599       6.981       4.170      9.8346E-03
   7    10.00       9.992       9.973       9.920       9.774       9.412       8.599       6.981       4.170      9.8346E-03
   8    10.00       9.992       9.973       9.920       9.774       9.412       8.599       6.981       4.170      9.8346E-03
   9    10.00       9.992       9.973       9.920       9.774       9.412       8.599       6.981       4.170      9.8346E-03
  10    10.00       9.992       9.973       9.920       9.774       9.412       8.599       6.981       4.170      9.8346E-03
1
              HEAD IN LAYER   4 AT END OF TIME STEP  38 IN STRESS PERIOD    2
  ---------------------------------------------------------------------------

            1           2           3           4           5           6           7           8           9          10
 ........................................................................................................................
   1    10.00       9.992       9.972       9.917       9.768       9.399       8.577       6.949       4.134      9.8854E-03
   2    10.00       9.992       9.972       9.917       9.768       9.399       8.577       6.949       4.134      9.8854E-03
   3    10.00       9.992       9.972       9.917       9.768       9.399       8.577       6.949       4.134      9.8854E-03
   4    10.00       9.992       9.972       9.917       9.768       9.399       8.577       6.949       4.134      9.8854E-03
   5    10.00       9.992       9.972       9.917       9.768       9.399       8.577       6.949       4.134      9.8854E-03
   6    10.00       9.992       9.972       9.917       9.768       9.399       8.577       6.949       4.134      9.8854E-03
   7    10.00       9.992       9.972       9.917       9.768       9.399       8.577       6.949       4.134      9.8854E-03
   8    10.00       9.992       9.972       9.917       9.768       9.399       8.577       6.949       4.134      9.8854E-03
   9    10.00       9.992       9.972       9.917       9.768       9.399       8.577       6.949       4.134      9.8854E-03
  10    10.00       9.992       9.972       9.917       9.768       9.399       8.577       6.949       4.134      9.8854E-03
1
              HEAD IN LAYER   5 AT END OF TIME STEP  38 IN STRESS PERIOD    2
  ---------------------------------------------------------------------------

            1           2           3           4           5           6           7           8           9          10
 ........................................................................................................................
   1    10.00       9.992       9.972       9.916       9.765       9.393       8.566       6.933       4.116      9.8596E-03
   2    10.00       9.992       9.972       9.916       9.765       9.393       8.566       6.933       4.116      9.8596E-03
   3    10.00       9.992       9.972       9.916       9.765       9.393       8.566       6.933       4.116      9.8596E-03
   4    10.00       9.992       9.972       9.916       9.765       9.393       8.566       6.933       4.116      9.8596E-03
   5    10.00       9.992       9.972       9.916       9.765       9.393       8.566       6.933       4.116      9.8596E-03
   6    10.00       9.992       9.972       9.916       9.765       9.393       8.566       6.933       4.116      9.8596E-03
   7    10.00       9.992       9.972       9.916       9.765       9.393       8.566       6.933       4.116      9.8596E-03
   8    10.00       9.992       9.972       9.916       9.765       9.393       8.566       6.933       4.116      9.8596E-03
   9    10.00       9.992       9.972       9.916       9.765       9.393       8.566       6.933       4.116      9.8596E-03
  10    10.00       9.992       9.972       9.916       9.765       9.393       8.566       6.933       4.116      9.8596E-03

 HEAD WILL BE SAVED ON UNIT   51 AT END OF TIME STEP   38, STRESS PERIOD    2

 DRAWDOWN WILL BE SAVED ON UNIT   52 AT END OF TIME STEP   38, STRESS PERIOD    2
1
  VOLUMETRIC BUDGET FOR ENTIRE MODEL AT END OF TIME STEP   38, STRESS PERIOD   2
  ------------------------------------------------------------------------------

     CUMULATIVE VOLUMES      L**3       RATES FOR THIS TIME STEP      L**3/T
     ------------------                 ------------------------

           IN:                                      IN:
           ---                                      ---
             STORAGE =      218238.7344               STORAGE =        2118.8623
       CONSTANT HEAD =           0.0000         CONSTANT HEAD =           0.0000
               WELLS =           0.0000                 WELLS =           0.0000
     HEAD DEP BOUNDS =          38.5158       HEAD DEP BOUNDS =           4.5185

            TOTAL IN =      218277.2500              TOTAL IN =        2123.3809

          OUT:                                     OUT:
          ----                                     ----
             STORAGE =           0.0000               STORAGE =           0.0000
       CONSTANT HEAD =           0.0000         CONSTANT HEAD =           0.0000
               WELLS =           0.0000                 WELLS =           0.0000
     HEAD DEP BOUNDS =      218277.5781       HEAD DEP BOUNDS =        2123.3430

           TOTAL OUT =      218277.5781             TOTAL OUT =        2123.3430

            IN - OUT =          -0.3281              IN - OUT =       3.7842E-02

 PERCENT DISCREPANCY =          -0.00     PERCENT DISCREPANCY =           0.00






         TIME SUMMARY AT END OF TIME STEP   38 IN STRESS PERIOD    2
                    SECONDS     MINUTES      HOURS       DAYS        YEARS
                    -----------------------------------------------------------
   TIME STEP LENGTH  86400.      1440.0      24.000      1.0000     2.73785E-03
 STRESS PERIOD TIME 3.28320E+06  54720.      912.00      38.000     0.10404    
         TOTAL TIME 3.36960E+06  56160.      936.00      39.000     0.10678    
1
 
 SOLVING FOR HEAD 

 OUTPUT CONTROL FOR STRESS PERIOD    2   TIME STEP   39
    SAVE HEAD FOR ALL LAYERS
    SAVE DRAWDOWN FOR ALL LAYERS
    SAVE BUDGET
    PRINT HEAD FOR ALL LAYERS
    PRINT BUDGET
 UBDSV1 SAVING "         STORAGE" ON UNIT  53 AT TIME STEP 39, STRESS PERIOD   2
 UBDSV2 SAVING "   CONSTANT HEAD" ON UNIT  53 AT TIME STEP 39, STRESS PERIOD   2
 UBDSV1 SAVING "FLOW RIGHT FACE " ON UNIT  53 AT TIME STEP 39, STRESS PERIOD   2
 UBDSV1 SAVING "FLOW FRONT FACE " ON UNIT  53 AT TIME STEP 39, STRESS PERIOD   2
 UBDSV1 SAVING "FLOW LOWER FACE " ON UNIT  53 AT TIME STEP 39, STRESS PERIOD   2
1
              HEAD IN LAYER   1 AT END OF TIME STEP  39 IN STRESS PERIOD    2
  ---------------------------------------------------------------------------

            1           2           3           4           5           6           7           8           9          10
 ........................................................................................................................
   1    10.00       9.993       9.975       9.923       9.782       9.429       8.631       7.029       4.229      3.9513E-03
   2    10.00       9.993       9.975       9.923       9.782       9.429       8.631       7.029       4.229      3.9513E-03
   3    10.00       9.993       9.975       9.923       9.782       9.429       8.631       7.029       4.229      3.9513E-03
   4    10.00       9.993       9.975       9.923       9.782       9.429       8.631       7.029       4.229      3.9513E-03
   5    10.00       9.993       9.975       9.923       9.782       9.429       8.631       7.029       4.229      3.9513E-03
   6    10.00       9.993       9.975       9.923       9.782       9.429       8.631       7.029       4.229      3.9513E-03
   7    10.00       9.993       9.975       9.923       9.782       9.429       8.631       7.029       4.229      3.9513E-03
   8    10.00       9.993       9.975       9.923       9.782       9.429       8.631       7.029       4.229      3.9513E-03
   9    10.00       9.993       9.975       9.923       9.782       9.429       8.631       7.029       4.229      3.9513E-03
  10    10.00       9.993       9.975       9.923       9.782       9.429       8.631       7.029       4.229      3.9513E-03
1
              HEAD IN LAYER   2 AT END OF TIME STEP  39 IN STRESS PERIOD    2
  ---------------------------------------------------------------------------

            1           2           3           4           5           6           7           8           9          10
 ........................................................................................................................
   1    10.00       9.992       9.973       9.918       9.770       9.404       8.589       6.973       4.174      8.7766E-03
   2    10.00       9.992       9.973       9.918       9.770       9.404       8.589       6.973       4.174      8.7766E-03
   3    10.00       9.992       9.973       9.918       9.770       9.404       8.589       6.973       4.174      8.7766E-03
   4    10.00       9.992       9.973       9.918       9.770       9.404       8.589       6.973       4.174      8.7766E-03
   5    10.00       9.992       9.973       9.918       9.770       9.404       8.589       6.973       4.174      8.7766E-03
   6    10.00       9.992       9.973       9.918       9.770       9.404       8.589       6.973       4.174      8.7766E-03
   7    10.00       9.992       9.973       9.918       9.770       9.404       8.589       6.973       4.174      8.7766E-03
   8    10.00       9.992       9.973       9.918       9.770       9.404       8.589       6.973       4.174      8.7766E-03
   9    10.00       9.992       9.973       9.918       9.770       9.404       8.589       6.973       4.174      8.7766E-03
  10    10.00       9.992       9.973       9.918       9.770       9.404       8.589       6.973       4.174      8.7766E-03
1
              HEAD IN LAYER   3 AT END OF TIME STEP  39 IN STRESS PERIOD    2
  ---------------------------------------------------------------------------

            1           2           3           4           5           6           7           8           9          10
 ........................................................................................................................
   1    10.00       9.992       9.971       9.914       9.761       9.386       8.557       6.925       4.121      9.7196E-03
   2    10.00       9.992       9.971       9.914       9.761       9.386       8.557       6.925       4.121      9.7196E-03
   3    10.00       9.992       9.971       9.914       9.761       9.386       8.557       6.925       4.121      9.7196E-03
   4    10.00       9.992       9.971       9.914       9.761       9.386       8.557       6.925       4.121      9.7196E-03
   5    10.00       9.992       9.971       9.914       9.761       9.386       8.557       6.925       4.121      9.7196E-03
   6    10.00       9.992       9.971       9.914       9.761       9.386       8.557       6.925       4.121      9.7196E-03
   7    10.00       9.992       9.971       9.914       9.761       9.386       8.557       6.925       4.121      9.7196E-03
   8    10.00       9.992       9.971       9.914       9.761       9.386       8.557       6.925       4.121      9.7196E-03
   9    10.00       9.992       9.971       9.914       9.761       9.386       8.557       6.925       4.121      9.7196E-03
  10    10.00       9.992       9.971       9.914       9.761       9.386       8.557       6.925       4.121      9.7196E-03
1
              HEAD IN LAYER   4 AT END OF TIME STEP  39 IN STRESS PERIOD    2
  ---------------------------------------------------------------------------

            1           2           3           4           5           6           7           8           9          10
 ........................................................................................................................
   1    10.00       9.991       9.970       9.911       9.755       9.373       8.535       6.893       4.086      9.7714E-03
   2    10.00       9.991       9.970       9.911       9.755       9.373       8.535       6.893       4.086      9.7714E-03
   3    10.00       9.991       9.970       9.911       9.755       9.373       8.535       6.893       4.086      9.7714E-03
   4    10.00       9.991       9.970       9.911       9.755       9.373       8.535       6.893       4.086      9.7714E-03
   5    10.00       9.991       9.970       9.911       9.755       9.373       8.535       6.893       4.086      9.7714E-03
   6    10.00       9.991       9.970       9.911       9.755       9.373       8.535       6.893       4.086      9.7714E-03
   7    10.00       9.991       9.970       9.911       9.755       9.373       8.535       6.893       4.086      9.7714E-03
   8    10.00       9.991       9.970       9.911       9.755       9.373       8.535       6.893       4.086      9.7714E-03
   9    10.00       9.991       9.970       9.911       9.755       9.373       8.535       6.893       4.086      9.7714E-03
  10    10.00       9.991       9.970       9.911       9.755       9.373       8.535       6.893       4.086      9.7714E-03
1
              HEAD IN LAYER   5 AT END OF TIME STEP  39 IN STRESS PERIOD    2
  ---------------------------------------------------------------------------

            1           2           3           4           5           6           7           8           9          10
 ........................................................................................................................
   1    10.00       9.991       9.970       9.910       9.752       9.367       8.524       6.877       4.069      9.7467E-03
   2    10.00       9.991       9.970       9.910       9.752       9.367       8.524       6.877       4.069      9.7467E-03
   3    10.00       9.991       9.970       9.910       9.752       9.367       8.524       6.877       4.069      9.7467E-03
   4    10.00       9.991       9.970       9.910       9.752       9.367       8.524       6.877       4.069      9.7467E-03
   5    10.00       9.991       9.970       9.910       9.752       9.367       8.524       6.877       4.069      9.7467E-03
   6    10.00       9.991       9.970       9.910       9.752       9.367       8.524       6.877       4.069      9.7467E-03
   7    10.00       9.991       9.970       9.910       9.752       9.367       8.524       6.877       4.069      9.7467E-03
   8    10.00       9.991       9.970       9.910       9.752       9.367       8.524       6.877       4.069      9.7467E-03
   9    10.00       9.991       9.970       9.910       9.752       9.367       8.524       6.877       4.069      9.7467E-03
  10    10.00       9.991       9.970       9.910       9.752       9.367       8.524       6.877       4.069      9.7467E-03

 HEAD WILL BE SAVED ON UNIT   51 AT END OF TIME STEP   39, STRESS PERIOD    2

 DRAWDOWN WILL BE SAVED ON UNIT   52 AT END OF TIME STEP   39, STRESS PERIOD    2
1
  VOLUMETRIC BUDGET FOR ENTIRE MODEL AT END OF TIME STEP   39, STRESS PERIOD   2
  ------------------------------------------------------------------------------

     CUMULATIVE VOLUMES      L**3       RATES FOR THIS TIME STEP      L**3/T
     ------------------                 ------------------------

           IN:                                      IN:
           ---                                      ---
             STORAGE =      220332.0938               STORAGE =        2093.3613
       CONSTANT HEAD =           0.0000         CONSTANT HEAD =           0.0000
               WELLS =           0.0000                 WELLS =           0.0000
     HEAD DEP BOUNDS =          43.4630       HEAD DEP BOUNDS =           4.9472

            TOTAL IN =      220375.5625              TOTAL IN =        2098.3086

          OUT:                                     OUT:
          ----                                     ----
             STORAGE =           0.0000               STORAGE =           0.0000
       CONSTANT HEAD =           0.0000         CONSTANT HEAD =           0.0000
               WELLS =           0.0000                 WELLS =           0.0000
     HEAD DEP BOUNDS =      220375.8594       HEAD DEP BOUNDS =        2098.2800

           TOTAL OUT =      220375.8594             TOTAL OUT =        2098.2800

            IN - OUT =          -0.2969              IN - OUT =       2.8564E-02

 PERCENT DISCREPANCY =          -0.00     PERCENT DISCREPANCY =           0.00






         TIME SUMMARY AT END OF TIME STEP   39 IN STRESS PERIOD    2
                    SECONDS     MINUTES      HOURS       DAYS        YEARS
                    -----------------------------------------------------------
   TIME STEP LENGTH  86400.      1440.0      24.000      1.0000     2.73785E-03
 STRESS PERIOD TIME 3.36960E+06  56160.      936.00      39.000     0.10678    
         TOTAL TIME 3.45600E+06  57600.      960.00      40.000     0.10951    
1
 
 SOLVING FOR HEAD 

 OUTPUT CONTROL FOR STRESS PERIOD    2   TIME STEP   40
    SAVE HEAD FOR ALL LAYERS
    SAVE DRAWDOWN FOR ALL LAYERS
    SAVE BUDGET
    PRINT HEAD FOR ALL LAYERS
    PRINT BUDGET
 UBDSV1 SAVING "         STORAGE" ON UNIT  53 AT TIME STEP 40, STRESS PERIOD   2
 UBDSV2 SAVING "   CONSTANT HEAD" ON UNIT  53 AT TIME STEP 40, STRESS PERIOD   2
 UBDSV1 SAVING "FLOW RIGHT FACE " ON UNIT  53 AT TIME STEP 40, STRESS PERIOD   2
 UBDSV1 SAVING "FLOW FRONT FACE " ON UNIT  53 AT TIME STEP 40, STRESS PERIOD   2
 UBDSV1 SAVING "FLOW LOWER FACE " ON UNIT  53 AT TIME STEP 40, STRESS PERIOD   2
1
              HEAD IN LAYER   1 AT END OF TIME STEP  40 IN STRESS PERIOD    2
  ---------------------------------------------------------------------------

            1           2           3           4           5           6           7           8           9          10
 ........................................................................................................................
   1    10.00       9.992       9.973       9.917       9.769       9.403       8.588       6.972       4.179      3.9004E-03
   2    10.00       9.992       9.973       9.917       9.769       9.403       8.588       6.972       4.179      3.9004E-03
   3    10.00       9.992       9.973       9.917       9.769       9.403       8.588       6.972       4.179      3.9004E-03
   4    10.00       9.992       9.973       9.917       9.769       9.403       8.588       6.972       4.179      3.9004E-03
   5    10.00       9.992       9.973       9.917       9.769       9.403       8.588       6.972       4.179      3.9004E-03
   6    10.00       9.992       9.973       9.917       9.769       9.403       8.588       6.972       4.179      3.9004E-03
   7    10.00       9.992       9.973       9.917       9.769       9.403       8.588       6.972       4.179      3.9004E-03
   8    10.00       9.992       9.973       9.917       9.769       9.403       8.588       6.972       4.179      3.9004E-03
   9    10.00       9.992       9.973       9.917       9.769       9.403       8.588       6.972       4.179      3.9004E-03
  10    10.00       9.992       9.973       9.917       9.769       9.403       8.588       6.972       4.179      3.9004E-03
1
              HEAD IN LAYER   2 AT END OF TIME STEP  40 IN STRESS PERIOD    2
  ---------------------------------------------------------------------------

            1           2           3           4           5           6           7           8           9          10
 ........................................................................................................................
   1    10.00       9.991       9.970       9.912       9.757       9.379       8.547       6.917       4.126      8.6735E-03
   2    10.00       9.991       9.970       9.912       9.757       9.379       8.547       6.917       4.126      8.6735E-03
   3    10.00       9.991       9.970       9.912       9.757       9.379       8.547       6.917       4.126      8.6735E-03
   4    10.00       9.991       9.970       9.912       9.757       9.379       8.547       6.917       4.126      8.6735E-03
   5    10.00       9.991       9.970       9.912       9.757       9.379       8.547       6.917       4.126      8.6735E-03
   6    10.00       9.991       9.970       9.912       9.757       9.379       8.547       6.917       4.126      8.6735E-03
   7    10.00       9.991       9.970       9.912       9.757       9.379       8.547       6.917       4.126      8.6735E-03
   8    10.00       9.991       9.970       9.912       9.757       9.379       8.547       6.917       4.126      8.6735E-03
   9    10.00       9.991       9.970       9.912       9.757       9.379       8.547       6.917       4.126      8.6735E-03
  10    10.00       9.991       9.970       9.912       9.757       9.379       8.547       6.917       4.126      8.6735E-03
1
              HEAD IN LAYER   3 AT END OF TIME STEP  40 IN STRESS PERIOD    2
  ---------------------------------------------------------------------------

            1           2           3           4           5           6           7           8           9          10
 ........................................................................................................................
   1    10.00       9.991       9.969       9.908       9.747       9.360       8.514       6.870       4.074      9.6083E-03
   2    10.00       9.991       9.969       9.908       9.747       9.360       8.514       6.870       4.074      9.6083E-03
   3    10.00       9.991       9.969       9.908       9.747       9.360       8.514       6.870       4.074      9.6083E-03
   4    10.00       9.991       9.969       9.908       9.747       9.360       8.514       6.870       4.074      9.6083E-03
   5    10.00       9.991       9.969       9.908       9.747       9.360       8.514       6.870       4.074      9.6083E-03
   6    10.00       9.991       9.969       9.908       9.747       9.360       8.514       6.870       4.074      9.6083E-03
   7    10.00       9.991       9.969       9.908       9.747       9.360       8.514       6.870       4.074      9.6083E-03
   8    10.00       9.991       9.969       9.908       9.747       9.360       8.514       6.870       4.074      9.6083E-03
   9    10.00       9.991       9.969       9.908       9.747       9.360       8.514       6.870       4.074      9.6083E-03
  10    10.00       9.991       9.969       9.908       9.747       9.360       8.514       6.870       4.074      9.6083E-03
1
              HEAD IN LAYER   4 AT END OF TIME STEP  40 IN STRESS PERIOD    2
  ---------------------------------------------------------------------------

            1           2           3           4           5           6           7           8           9          10
 ........................................................................................................................
   1    10.00       9.990       9.968       9.905       9.741       9.347       8.492       6.838       4.040      9.6610E-03
   2    10.00       9.990       9.968       9.905       9.741       9.347       8.492       6.838       4.040      9.6610E-03
   3    10.00       9.990       9.968       9.905       9.741       9.347       8.492       6.838       4.040      9.6610E-03
   4    10.00       9.990       9.968       9.905       9.741       9.347       8.492       6.838       4.040      9.6610E-03
   5    10.00       9.990       9.968       9.905       9.741       9.347       8.492       6.838       4.040      9.6610E-03
   6    10.00       9.990       9.968       9.905       9.741       9.347       8.492       6.838       4.040      9.6610E-03
   7    10.00       9.990       9.968       9.905       9.741       9.347       8.492       6.838       4.040      9.6610E-03
   8    10.00       9.990       9.968       9.905       9.741       9.347       8.492       6.838       4.040      9.6610E-03
   9    10.00       9.990       9.968       9.905       9.741       9.347       8.492       6.838       4.040      9.6610E-03
  10    10.00       9.990       9.968       9.905       9.741       9.347       8.492       6.838       4.040      9.6610E-03
1
              HEAD IN LAYER   5 AT END OF TIME STEP  40 IN STRESS PERIOD    2
  ---------------------------------------------------------------------------

            1           2           3           4           5           6           7           8           9          10
 ........................................................................................................................
   1    10.00       9.990       9.967       9.904       9.738       9.341       8.481       6.823       4.023      9.6374E-03
   2    10.00       9.990       9.967       9.904       9.738       9.341       8.481       6.823       4.023      9.6374E-03
   3    10.00       9.990       9.967       9.904       9.738       9.341       8.481       6.823       4.023      9.6374E-03
   4    10.00       9.990       9.967       9.904       9.738       9.341       8.481       6.823       4.023      9.6374E-03
   5    10.00       9.990       9.967       9.904       9.738       9.341       8.481       6.823       4.023      9.6374E-03
   6    10.00       9.990       9.967       9.904       9.738       9.341       8.481       6.823       4.023      9.6374E-03
   7    10.00       9.990       9.967       9.904       9.738       9.341       8.481       6.823       4.023      9.6374E-03
   8    10.00       9.990       9.967       9.904       9.738       9.341       8.481       6.823       4.023      9.6374E-03
   9    10.00       9.990       9.967       9.904       9.738       9.341       8.481       6.823       4.023      9.6374E-03
  10    10.00       9.990       9.967       9.904       9.738       9.341       8.481       6.823       4.023      9.6374E-03

 HEAD WILL BE SAVED ON UNIT   51 AT END OF TIME STEP   40, STRESS PERIOD    2

 DRAWDOWN WILL BE SAVED ON UNIT   52 AT END OF TIME STEP   40, STRESS PERIOD    2
1
  VOLUMETRIC BUDGET FOR ENTIRE MODEL AT END OF TIME STEP   40, STRESS PERIOD   2
  ------------------------------------------------------------------------------

     CUMULATIVE VOLUMES      L**3       RATES FOR THIS TIME STEP      L**3/T
     ------------------                 ------------------------

           IN:                                      IN:
           ---                                      ---
             STORAGE =      222400.7344               STORAGE =        2068.6333
       CONSTANT HEAD =           0.0000         CONSTANT HEAD =           0.0000
               WELLS =           0.0000                 WELLS =           0.0000
     HEAD DEP BOUNDS =          48.8658       HEAD DEP BOUNDS =           5.4028

            TOTAL IN =      222449.5938              TOTAL IN =        2074.0361

          OUT:                                     OUT:
          ----                                     ----
             STORAGE =           0.0000               STORAGE =           0.0000
       CONSTANT HEAD =           0.0000         CONSTANT HEAD =           0.0000
               WELLS =           0.0000                 WELLS =           0.0000
     HEAD DEP BOUNDS =      222449.8906       HEAD DEP BOUNDS =        2074.0300

           TOTAL OUT =      222449.8906             TOTAL OUT =        2074.0300

            IN - OUT =          -0.2969              IN - OUT =       6.1035E-03

 PERCENT DISCREPANCY =          -0.00     PERCENT DISCREPANCY =           0.00






         TIME SUMMARY AT END OF TIME STEP   40 IN STRESS PERIOD    2
                    SECONDS     MINUTES      HOURS       DAYS        YEARS
                    -----------------------------------------------------------
   TIME STEP LENGTH  86400.      1440.0      24.000      1.0000     2.73785E-03
 STRESS PERIOD TIME 3.45600E+06  57600.      960.00      40.000     0.10951    
         TOTAL TIME 3.54240E+06  59040.      984.00      41.000     0.11225    
1
 
 SOLVING FOR HEAD 

 OUTPUT CONTROL FOR STRESS PERIOD    2   TIME STEP   41
    SAVE HEAD FOR ALL LAYERS
    SAVE DRAWDOWN FOR ALL LAYERS
    SAVE BUDGET
    PRINT HEAD FOR ALL LAYERS
    PRINT BUDGET
 UBDSV1 SAVING "         STORAGE" ON UNIT  53 AT TIME STEP 41, STRESS PERIOD   2
 UBDSV2 SAVING "   CONSTANT HEAD" ON UNIT  53 AT TIME STEP 41, STRESS PERIOD   2
 UBDSV1 SAVING "FLOW RIGHT FACE " ON UNIT  53 AT TIME STEP 41, STRESS PERIOD   2
 UBDSV1 SAVING "FLOW FRONT FACE " ON UNIT  53 AT TIME STEP 41, STRESS PERIOD   2
 UBDSV1 SAVING "FLOW LOWER FACE " ON UNIT  53 AT TIME STEP 41, STRESS PERIOD   2
1
              HEAD IN LAYER   1 AT END OF TIME STEP  41 IN STRESS PERIOD    2
  ---------------------------------------------------------------------------

            1           2           3           4           5           6           7           8           9          10
 ........................................................................................................................
   1    10.00       9.991       9.970       9.911       9.756       9.377       8.545       6.916       4.130      3.8512E-03
   2    10.00       9.991       9.970       9.911       9.756       9.377       8.545       6.916       4.130      3.8512E-03
   3    10.00       9.991       9.970       9.911       9.756       9.377       8.545       6.916       4.130      3.8512E-03
   4    10.00       9.991       9.970       9.911       9.756       9.377       8.545       6.916       4.130      3.8512E-03
   5    10.00       9.991       9.970       9.911       9.756       9.377       8.545       6.916       4.130      3.8512E-03
   6    10.00       9.991       9.970       9.911       9.756       9.377       8.545       6.916       4.130      3.8512E-03
   7    10.00       9.991       9.970       9.911       9.756       9.377       8.545       6.916       4.130      3.8512E-03
   8    10.00       9.991       9.970       9.911       9.756       9.377       8.545       6.916       4.130      3.8512E-03
   9    10.00       9.991       9.970       9.911       9.756       9.377       8.545       6.916       4.130      3.8512E-03
  10    10.00       9.991       9.970       9.911       9.756       9.377       8.545       6.916       4.130      3.8512E-03
1
              HEAD IN LAYER   2 AT END OF TIME STEP  41 IN STRESS PERIOD    2
  ---------------------------------------------------------------------------

            1           2           3           4           5           6           7           8           9          10
 ........................................................................................................................
   1    10.00       9.991       9.968       9.906       9.743       9.353       8.504       6.862       4.079      8.5738E-03
   2    10.00       9.991       9.968       9.906       9.743       9.353       8.504       6.862       4.079      8.5738E-03
   3    10.00       9.991       9.968       9.906       9.743       9.353       8.504       6.862       4.079      8.5738E-03
   4    10.00       9.991       9.968       9.906       9.743       9.353       8.504       6.862       4.079      8.5738E-03
   5    10.00       9.991       9.968       9.906       9.743       9.353       8.504       6.862       4.079      8.5738E-03
   6    10.00       9.991       9.968       9.906       9.743       9.353       8.504       6.862       4.079      8.5738E-03
   7    10.00       9.991       9.968       9.906       9.743       9.353       8.504       6.862       4.079      8.5738E-03
   8    10.00       9.991       9.968       9.906       9.743       9.353       8.504       6.862       4.079      8.5738E-03
   9    10.00       9.991       9.968       9.906       9.743       9.353       8.504       6.862       4.079      8.5738E-03
  10    10.00       9.991       9.968       9.906       9.743       9.353       8.504       6.862       4.079      8.5738E-03
1
              HEAD IN LAYER   3 AT END OF TIME STEP  41 IN STRESS PERIOD    2
  ---------------------------------------------------------------------------

            1           2           3           4           5           6           7           8           9          10
 ........................................................................................................................
   1    10.00       9.990       9.966       9.902       9.734       9.334       8.472       6.816       4.029      9.5005E-03
   2    10.00       9.990       9.966       9.902       9.734       9.334       8.472       6.816       4.029      9.5005E-03
   3    10.00       9.990       9.966       9.902       9.734       9.334       8.472       6.816       4.029      9.5005E-03
   4    10.00       9.990       9.966       9.902       9.734       9.334       8.472       6.816       4.029      9.5005E-03
   5    10.00       9.990       9.966       9.902       9.734       9.334       8.472       6.816       4.029      9.5005E-03
   6    10.00       9.990       9.966       9.902       9.734       9.334       8.472       6.816       4.029      9.5005E-03
   7    10.00       9.990       9.966       9.902       9.734       9.334       8.472       6.816       4.029      9.5005E-03
   8    10.00       9.990       9.966       9.902       9.734       9.334       8.472       6.816       4.029      9.5005E-03
   9    10.00       9.990       9.966       9.902       9.734       9.334       8.472       6.816       4.029      9.5005E-03
  10    10.00       9.990       9.966       9.902       9.734       9.334       8.472       6.816       4.029      9.5005E-03
1
              HEAD IN LAYER   4 AT END OF TIME STEP  41 IN STRESS PERIOD    2
  ---------------------------------------------------------------------------

            1           2           3           4           5           6           7           8           9          10
 ........................................................................................................................
   1    10.00       9.990       9.965       9.899       9.727       9.321       8.450       6.785       3.996      9.5541E-03
   2    10.00       9.990       9.965       9.899       9.727       9.321       8.450       6.785       3.996      9.5541E-03
   3    10.00       9.990       9.965       9.899       9.727       9.321       8.450       6.785       3.996      9.5541E-03
   4    10.00       9.990       9.965       9.899       9.727       9.321       8.450       6.785       3.996      9.5541E-03
   5    10.00       9.990       9.965       9.899       9.727       9.321       8.450       6.785       3.996      9.5541E-03
   6    10.00       9.990       9.965       9.899       9.727       9.321       8.450       6.785       3.996      9.5541E-03
   7    10.00       9.990       9.965       9.899       9.727       9.321       8.450       6.785       3.996      9.5541E-03
   8    10.00       9.990       9.965       9.899       9.727       9.321       8.450       6.785       3.996      9.5541E-03
   9    10.00       9.990       9.965       9.899       9.727       9.321       8.450       6.785       3.996      9.5541E-03
  10    10.00       9.990       9.965       9.899       9.727       9.321       8.450       6.785       3.996      9.5541E-03
1
              HEAD IN LAYER   5 AT END OF TIME STEP  41 IN STRESS PERIOD    2
  ---------------------------------------------------------------------------

            1           2           3           4           5           6           7           8           9          10
 ........................................................................................................................
   1    10.00       9.989       9.965       9.897       9.724       9.315       8.439       6.769       3.979      9.5314E-03
   2    10.00       9.989       9.965       9.897       9.724       9.315       8.439       6.769       3.979      9.5314E-03
   3    10.00       9.989       9.965       9.897       9.724       9.315       8.439       6.769       3.979      9.5314E-03
   4    10.00       9.989       9.965       9.897       9.724       9.315       8.439       6.769       3.979      9.5314E-03
   5    10.00       9.989       9.965       9.897       9.724       9.315       8.439       6.769       3.979      9.5314E-03
   6    10.00       9.989       9.965       9.897       9.724       9.315       8.439       6.769       3.979      9.5314E-03
   7    10.00       9.989       9.965       9.897       9.724       9.315       8.439       6.769       3.979      9.5314E-03
   8    10.00       9.989       9.965       9.897       9.724       9.315       8.439       6.769       3.979      9.5314E-03
   9    10.00       9.989       9.965       9.897       9.724       9.315       8.439       6.769       3.979      9.5314E-03
  10    10.00       9.989       9.965       9.897       9.724       9.315       8.439       6.769       3.979      9.5314E-03

 HEAD WILL BE SAVED ON UNIT   51 AT END OF TIME STEP   41, STRESS PERIOD    2

 DRAWDOWN WILL BE SAVED ON UNIT   52 AT END OF TIME STEP   41, STRESS PERIOD    2
1
  VOLUMETRIC BUDGET FOR ENTIRE MODEL AT END OF TIME STEP   41, STRESS PERIOD   2
  ------------------------------------------------------------------------------

     CUMULATIVE VOLUMES      L**3       RATES FOR THIS TIME STEP      L**3/T
     ------------------                 ------------------------

           IN:                                      IN:
           ---                                      ---
             STORAGE =      224445.4062               STORAGE =        2044.6669
       CONSTANT HEAD =           0.0000         CONSTANT HEAD =           0.0000
               WELLS =           0.0000                 WELLS =           0.0000
     HEAD DEP BOUNDS =          54.7524       HEAD DEP BOUNDS =           5.8865

            TOTAL IN =      224500.1562              TOTAL IN =        2050.5535

          OUT:                                     OUT:
          ----                                     ----
             STORAGE =           0.0000               STORAGE =           0.0000
       CONSTANT HEAD =           0.0000         CONSTANT HEAD =           0.0000
               WELLS =           0.0000                 WELLS =           0.0000
     HEAD DEP BOUNDS =      224500.4375       HEAD DEP BOUNDS =        2050.5547

           TOTAL OUT =      224500.4375             TOTAL OUT =        2050.5547

            IN - OUT =          -0.2812              IN - OUT =      -1.2207E-03

 PERCENT DISCREPANCY =          -0.00     PERCENT DISCREPANCY =          -0.00






         TIME SUMMARY AT END OF TIME STEP   41 IN STRESS PERIOD    2
                    SECONDS     MINUTES      HOURS       DAYS        YEARS
                    -----------------------------------------------------------
   TIME STEP LENGTH  86400.      1440.0      24.000      1.0000     2.73785E-03
 STRESS PERIOD TIME 3.54240E+06  59040.      984.00      41.000     0.11225    
         TOTAL TIME 3.62880E+06  60480.      1008.0      42.000     0.11499    
1
 
 SOLVING FOR HEAD 

 OUTPUT CONTROL FOR STRESS PERIOD    2   TIME STEP   42
    SAVE HEAD FOR ALL LAYERS
    SAVE DRAWDOWN FOR ALL LAYERS
    SAVE BUDGET
    PRINT HEAD FOR ALL LAYERS
    PRINT BUDGET
 UBDSV1 SAVING "         STORAGE" ON UNIT  53 AT TIME STEP 42, STRESS PERIOD   2
 UBDSV2 SAVING "   CONSTANT HEAD" ON UNIT  53 AT TIME STEP 42, STRESS PERIOD   2
 UBDSV1 SAVING "FLOW RIGHT FACE " ON UNIT  53 AT TIME STEP 42, STRESS PERIOD   2
 UBDSV1 SAVING "FLOW FRONT FACE " ON UNIT  53 AT TIME STEP 42, STRESS PERIOD   2
 UBDSV1 SAVING "FLOW LOWER FACE " ON UNIT  53 AT TIME STEP 42, STRESS PERIOD   2
1
              HEAD IN LAYER   1 AT END OF TIME STEP  42 IN STRESS PERIOD    2
  ---------------------------------------------------------------------------

            1           2           3           4           5           6           7           8           9          10
 ........................................................................................................................
   1    10.00       9.990       9.968       9.905       9.743       9.351       8.503       6.861       4.083      3.8036E-03
   2    10.00       9.990       9.968       9.905       9.743       9.351       8.503       6.861       4.083      3.8036E-03
   3    10.00       9.990       9.968       9.905       9.743       9.351       8.503       6.861       4.083      3.8036E-03
   4    10.00       9.990       9.968       9.905       9.743       9.351       8.503       6.861       4.083      3.8036E-03
   5    10.00       9.990       9.968       9.905       9.743       9.351       8.503       6.861       4.083      3.8036E-03
   6    10.00       9.990       9.968       9.905       9.743       9.351       8.503       6.861       4.083      3.8036E-03
   7    10.00       9.990       9.968       9.905       9.743       9.351       8.503       6.861       4.083      3.8036E-03
   8    10.00       9.990       9.968       9.905       9.743       9.351       8.503       6.861       4.083      3.8036E-03
   9    10.00       9.990       9.968       9.905       9.743       9.351       8.503       6.861       4.083      3.8036E-03
  10    10.00       9.990       9.968       9.905       9.743       9.351       8.503       6.861       4.083      3.8036E-03
1
              HEAD IN LAYER   2 AT END OF TIME STEP  42 IN STRESS PERIOD    2
  ---------------------------------------------------------------------------

            1           2           3           4           5           6           7           8           9          10
 ........................................................................................................................
   1    10.00       9.990       9.965       9.900       9.730       9.327       8.462       6.808       4.033      8.4772E-03
   2    10.00       9.990       9.965       9.900       9.730       9.327       8.462       6.808       4.033      8.4772E-03
   3    10.00       9.990       9.965       9.900       9.730       9.327       8.462       6.808       4.033      8.4772E-03
   4    10.00       9.990       9.965       9.900       9.730       9.327       8.462       6.808       4.033      8.4772E-03
   5    10.00       9.990       9.965       9.900       9.730       9.327       8.462       6.808       4.033      8.4772E-03
   6    10.00       9.990       9.965       9.900       9.730       9.327       8.462       6.808       4.033      8.4772E-03
   7    10.00       9.990       9.965       9.900       9.730       9.327       8.462       6.808       4.033      8.4772E-03
   8    10.00       9.990       9.965       9.900       9.730       9.327       8.462       6.808       4.033      8.4772E-03
   9    10.00       9.990       9.965       9.900       9.730       9.327       8.462       6.808       4.033      8.4772E-03
  10    10.00       9.990       9.965       9.900       9.730       9.327       8.462       6.808       4.033      8.4772E-03
1
              HEAD IN LAYER   3 AT END OF TIME STEP  42 IN STRESS PERIOD    2
  ---------------------------------------------------------------------------

            1           2           3           4           5           6           7           8           9          10
 ........................................................................................................................
   1    10.00       9.989       9.964       9.895       9.720       9.308       8.430       6.763       3.984      9.3961E-03
   2    10.00       9.989       9.964       9.895       9.720       9.308       8.430       6.763       3.984      9.3961E-03
   3    10.00       9.989       9.964       9.895       9.720       9.308       8.430       6.763       3.984      9.3961E-03
   4    10.00       9.989       9.964       9.895       9.720       9.308       8.430       6.763       3.984      9.3961E-03
   5    10.00       9.989       9.964       9.895       9.720       9.308       8.430       6.763       3.984      9.3961E-03
   6    10.00       9.989       9.964       9.895       9.720       9.308       8.430       6.763       3.984      9.3961E-03
   7    10.00       9.989       9.964       9.895       9.720       9.308       8.430       6.763       3.984      9.3961E-03
   8    10.00       9.989       9.964       9.895       9.720       9.308       8.430       6.763       3.984      9.3961E-03
   9    10.00       9.989       9.964       9.895       9.720       9.308       8.430       6.763       3.984      9.3961E-03
  10    10.00       9.989       9.964       9.895       9.720       9.308       8.430       6.763       3.984      9.3961E-03
1
              HEAD IN LAYER   4 AT END OF TIME STEP  42 IN STRESS PERIOD    2
  ---------------------------------------------------------------------------

            1           2           3           4           5           6           7           8           9          10
 ........................................................................................................................
   1    10.00       9.989       9.962       9.892       9.714       9.295       8.408       6.732       3.952      9.4505E-03
   2    10.00       9.989       9.962       9.892       9.714       9.295       8.408       6.732       3.952      9.4505E-03
   3    10.00       9.989       9.962       9.892       9.714       9.295       8.408       6.732       3.952      9.4505E-03
   4    10.00       9.989       9.962       9.892       9.714       9.295       8.408       6.732       3.952      9.4505E-03
   5    10.00       9.989       9.962       9.892       9.714       9.295       8.408       6.732       3.952      9.4505E-03
   6    10.00       9.989       9.962       9.892       9.714       9.295       8.408       6.732       3.952      9.4505E-03
   7    10.00       9.989       9.962       9.892       9.714       9.295       8.408       6.732       3.952      9.4505E-03
   8    10.00       9.989       9.962       9.892       9.714       9.295       8.408       6.732       3.952      9.4505E-03
   9    10.00       9.989       9.962       9.892       9.714       9.295       8.408       6.732       3.952      9.4505E-03
  10    10.00       9.989       9.962       9.892       9.714       9.295       8.408       6.732       3.952      9.4505E-03
1
              HEAD IN LAYER   5 AT END OF TIME STEP  42 IN STRESS PERIOD    2
  ---------------------------------------------------------------------------

            1           2           3           4           5           6           7           8           9          10
 ........................................................................................................................
   1    10.00       9.988       9.962       9.891       9.710       9.289       8.398       6.717       3.936      9.4288E-03
   2    10.00       9.988       9.962       9.891       9.710       9.289       8.398       6.717       3.936      9.4288E-03
   3    10.00       9.988       9.962       9.891       9.710       9.289       8.398       6.717       3.936      9.4288E-03
   4    10.00       9.988       9.962       9.891       9.710       9.289       8.398       6.717       3.936      9.4288E-03
   5    10.00       9.988       9.962       9.891       9.710       9.289       8.398       6.717       3.936      9.4288E-03
   6    10.00       9.988       9.962       9.891       9.710       9.289       8.398       6.717       3.936      9.4288E-03
   7    10.00       9.988       9.962       9.891       9.710       9.289       8.398       6.717       3.936      9.4288E-03
   8    10.00       9.988       9.962       9.891       9.710       9.289       8.398       6.717       3.936      9.4288E-03
   9    10.00       9.988       9.962       9.891       9.710       9.289       8.398       6.717       3.936      9.4288E-03
  10    10.00       9.988       9.962       9.891       9.710       9.289       8.398       6.717       3.936      9.4288E-03

 HEAD WILL BE SAVED ON UNIT   51 AT END OF TIME STEP   42, STRESS PERIOD    2

 DRAWDOWN WILL BE SAVED ON UNIT   52 AT END OF TIME STEP   42, STRESS PERIOD    2
1
  VOLUMETRIC BUDGET FOR ENTIRE MODEL AT END OF TIME STEP   42, STRESS PERIOD   2
  ------------------------------------------------------------------------------

     CUMULATIVE VOLUMES      L**3       RATES FOR THIS TIME STEP      L**3/T
     ------------------                 ------------------------

           IN:                                      IN:
           ---                                      ---
             STORAGE =      226466.7969               STORAGE =        2021.3900
       CONSTANT HEAD =           0.0000         CONSTANT HEAD =           0.0000
               WELLS =           0.0000                 WELLS =           0.0000
     HEAD DEP BOUNDS =          61.1510       HEAD DEP BOUNDS =           6.3986

            TOTAL IN =      226527.9531              TOTAL IN =        2027.7886

          OUT:                                     OUT:
          ----                                     ----
             STORAGE =           0.0000               STORAGE =           0.0000
       CONSTANT HEAD =           0.0000         CONSTANT HEAD =           0.0000
               WELLS =           0.0000                 WELLS =           0.0000
     HEAD DEP BOUNDS =      226528.2500       HEAD DEP BOUNDS =        2027.8088

           TOTAL OUT =      226528.2500             TOTAL OUT =        2027.8088

            IN - OUT =          -0.2969              IN - OUT =      -2.0264E-02

 PERCENT DISCREPANCY =          -0.00     PERCENT DISCREPANCY =          -0.00






         TIME SUMMARY AT END OF TIME STEP   42 IN STRESS PERIOD    2
                    SECONDS     MINUTES      HOURS       DAYS        YEARS
                    -----------------------------------------------------------
   TIME STEP LENGTH  86400.      1440.0      24.000      1.0000     2.73785E-03
 STRESS PERIOD TIME 3.62880E+06  60480.      1008.0      42.000     0.11499    
         TOTAL TIME 3.71520E+06  61920.      1032.0      43.000     0.11773    
1
 
 SOLVING FOR HEAD 

 OUTPUT CONTROL FOR STRESS PERIOD    2   TIME STEP   43
    SAVE HEAD FOR ALL LAYERS
    SAVE DRAWDOWN FOR ALL LAYERS
    SAVE BUDGET
    PRINT HEAD FOR ALL LAYERS
    PRINT BUDGET
 UBDSV1 SAVING "         STORAGE" ON UNIT  53 AT TIME STEP 43, STRESS PERIOD   2
 UBDSV2 SAVING "   CONSTANT HEAD" ON UNIT  53 AT TIME STEP 43, STRESS PERIOD   2
 UBDSV1 SAVING "FLOW RIGHT FACE " ON UNIT  53 AT TIME STEP 43, STRESS PERIOD   2
 UBDSV1 SAVING "FLOW FRONT FACE " ON UNIT  53 AT TIME STEP 43, STRESS PERIOD   2
 UBDSV1 SAVING "FLOW LOWER FACE " ON UNIT  53 AT TIME STEP 43, STRESS PERIOD   2
1
              HEAD IN LAYER   1 AT END OF TIME STEP  43 IN STRESS PERIOD    2
  ---------------------------------------------------------------------------

            1           2           3           4           5           6           7           8           9          10
 ........................................................................................................................
   1    10.00       9.990       9.965       9.899       9.729       9.325       8.460       6.807       4.037      3.7576E-03
   2    10.00       9.990       9.965       9.899       9.729       9.325       8.460       6.807       4.037      3.7576E-03
   3    10.00       9.990       9.965       9.899       9.729       9.325       8.460       6.807       4.037      3.7576E-03
   4    10.00       9.990       9.965       9.899       9.729       9.325       8.460       6.807       4.037      3.7576E-03
   5    10.00       9.990       9.965       9.899       9.729       9.325       8.460       6.807       4.037      3.7576E-03
   6    10.00       9.990       9.965       9.899       9.729       9.325       8.460       6.807       4.037      3.7576E-03
   7    10.00       9.990       9.965       9.899       9.729       9.325       8.460       6.807       4.037      3.7576E-03
   8    10.00       9.990       9.965       9.899       9.729       9.325       8.460       6.807       4.037      3.7576E-03
   9    10.00       9.990       9.965       9.899       9.729       9.325       8.460       6.807       4.037      3.7576E-03
  10    10.00       9.990       9.965       9.899       9.729       9.325       8.460       6.807       4.037      3.7576E-03
1
              HEAD IN LAYER   2 AT END OF TIME STEP  43 IN STRESS PERIOD    2
  ---------------------------------------------------------------------------

            1           2           3           4           5           6           7           8           9          10
 ........................................................................................................................
   1    10.00       9.989       9.963       9.893       9.716       9.301       8.420       6.755       3.989      8.3837E-03
   2    10.00       9.989       9.963       9.893       9.716       9.301       8.420       6.755       3.989      8.3837E-03
   3    10.00       9.989       9.963       9.893       9.716       9.301       8.420       6.755       3.989      8.3837E-03
   4    10.00       9.989       9.963       9.893       9.716       9.301       8.420       6.755       3.989      8.3837E-03
   5    10.00       9.989       9.963       9.893       9.716       9.301       8.420       6.755       3.989      8.3837E-03
   6    10.00       9.989       9.963       9.893       9.716       9.301       8.420       6.755       3.989      8.3837E-03
   7    10.00       9.989       9.963       9.893       9.716       9.301       8.420       6.755       3.989      8.3837E-03
   8    10.00       9.989       9.963       9.893       9.716       9.301       8.420       6.755       3.989      8.3837E-03
   9    10.00       9.989       9.963       9.893       9.716       9.301       8.420       6.755       3.989      8.3837E-03
  10    10.00       9.989       9.963       9.893       9.716       9.301       8.420       6.755       3.989      8.3837E-03
1
              HEAD IN LAYER   3 AT END OF TIME STEP  43 IN STRESS PERIOD    2
  ---------------------------------------------------------------------------

            1           2           3           4           5           6           7           8           9          10
 ........................................................................................................................
   1    10.00       9.988       9.961       9.889       9.706       9.281       8.388       6.711       3.942      9.2949E-03
   2    10.00       9.988       9.961       9.889       9.706       9.281       8.388       6.711       3.942      9.2949E-03
   3    10.00       9.988       9.961       9.889       9.706       9.281       8.388       6.711       3.942      9.2949E-03
   4    10.00       9.988       9.961       9.889       9.706       9.281       8.388       6.711       3.942      9.2949E-03
   5    10.00       9.988       9.961       9.889       9.706       9.281       8.388       6.711       3.942      9.2949E-03
   6    10.00       9.988       9.961       9.889       9.706       9.281       8.388       6.711       3.942      9.2949E-03
   7    10.00       9.988       9.961       9.889       9.706       9.281       8.388       6.711       3.942      9.2949E-03
   8    10.00       9.988       9.961       9.889       9.706       9.281       8.388       6.711       3.942      9.2949E-03
   9    10.00       9.988       9.961       9.889       9.706       9.281       8.388       6.711       3.942      9.2949E-03
  10    10.00       9.988       9.961       9.889       9.706       9.281       8.388       6.711       3.942      9.2949E-03
1
              HEAD IN LAYER   4 AT END OF TIME STEP  43 IN STRESS PERIOD    2
  ---------------------------------------------------------------------------

            1           2           3           4           5           6           7           8           9          10
 ........................................................................................................................
   1    10.00       9.988       9.960       9.886       9.699       9.269       8.367       6.681       3.910      9.3501E-03
   2    10.00       9.988       9.960       9.886       9.699       9.269       8.367       6.681       3.910      9.3501E-03
   3    10.00       9.988       9.960       9.886       9.699       9.269       8.367       6.681       3.910      9.3501E-03
   4    10.00       9.988       9.960       9.886       9.699       9.269       8.367       6.681       3.910      9.3501E-03
   5    10.00       9.988       9.960       9.886       9.699       9.269       8.367       6.681       3.910      9.3501E-03
   6    10.00       9.988       9.960       9.886       9.699       9.269       8.367       6.681       3.910      9.3501E-03
   7    10.00       9.988       9.960       9.886       9.699       9.269       8.367       6.681       3.910      9.3501E-03
   8    10.00       9.988       9.960       9.886       9.699       9.269       8.367       6.681       3.910      9.3501E-03
   9    10.00       9.988       9.960       9.886       9.699       9.269       8.367       6.681       3.910      9.3501E-03
  10    10.00       9.988       9.960       9.886       9.699       9.269       8.367       6.681       3.910      9.3501E-03
1
              HEAD IN LAYER   5 AT END OF TIME STEP  43 IN STRESS PERIOD    2
  ---------------------------------------------------------------------------

            1           2           3           4           5           6           7           8           9          10
 ........................................................................................................................
   1    10.00       9.987       9.959       9.884       9.696       9.262       8.356       6.666       3.895      9.3292E-03
   2    10.00       9.987       9.959       9.884       9.696       9.262       8.356       6.666       3.895      9.3292E-03
   3    10.00       9.987       9.959       9.884       9.696       9.262       8.356       6.666       3.895      9.3292E-03
   4    10.00       9.987       9.959       9.884       9.696       9.262       8.356       6.666       3.895      9.3292E-03
   5    10.00       9.987       9.959       9.884       9.696       9.262       8.356       6.666       3.895      9.3292E-03
   6    10.00       9.987       9.959       9.884       9.696       9.262       8.356       6.666       3.895      9.3292E-03
   7    10.00       9.987       9.959       9.884       9.696       9.262       8.356       6.666       3.895      9.3292E-03
   8    10.00       9.987       9.959       9.884       9.696       9.262       8.356       6.666       3.895      9.3292E-03
   9    10.00       9.987       9.959       9.884       9.696       9.262       8.356       6.666       3.895      9.3292E-03
  10    10.00       9.987       9.959       9.884       9.696       9.262       8.356       6.666       3.895      9.3292E-03

 HEAD WILL BE SAVED ON UNIT   51 AT END OF TIME STEP   43, STRESS PERIOD    2

 DRAWDOWN WILL BE SAVED ON UNIT   52 AT END OF TIME STEP   43, STRESS PERIOD    2
1
  VOLUMETRIC BUDGET FOR ENTIRE MODEL AT END OF TIME STEP   43, STRESS PERIOD   2
  ------------------------------------------------------------------------------

     CUMULATIVE VOLUMES      L**3       RATES FOR THIS TIME STEP      L**3/T
     ------------------                 ------------------------

           IN:                                      IN:
           ---                                      ---
             STORAGE =      228465.5625               STORAGE =        1998.7725
       CONSTANT HEAD =           0.0000         CONSTANT HEAD =           0.0000
               WELLS =           0.0000                 WELLS =           0.0000
     HEAD DEP BOUNDS =          68.0907       HEAD DEP BOUNDS =           6.9397

            TOTAL IN =      228533.6562              TOTAL IN =        2005.7122

          OUT:                                     OUT:
          ----                                     ----
             STORAGE =           0.0000               STORAGE =           0.0000
       CONSTANT HEAD =           0.0000         CONSTANT HEAD =           0.0000
               WELLS =           0.0000                 WELLS =           0.0000
     HEAD DEP BOUNDS =      228534.0312       HEAD DEP BOUNDS =        2005.7740

           TOTAL OUT =      228534.0312             TOTAL OUT =        2005.7740

            IN - OUT =          -0.3750              IN - OUT =      -6.1890E-02

 PERCENT DISCREPANCY =          -0.00     PERCENT DISCREPANCY =          -0.00






         TIME SUMMARY AT END OF TIME STEP   43 IN STRESS PERIOD    2
                    SECONDS     MINUTES      HOURS       DAYS        YEARS
                    -----------------------------------------------------------
   TIME STEP LENGTH  86400.      1440.0      24.000      1.0000     2.73785E-03
 STRESS PERIOD TIME 3.71520E+06  61920.      1032.0      43.000     0.11773    
         TOTAL TIME 3.80160E+06  63360.      1056.0      44.000     0.12047    
1
 
 SOLVING FOR HEAD 

 OUTPUT CONTROL FOR STRESS PERIOD    2   TIME STEP   44
    SAVE HEAD FOR ALL LAYERS
    SAVE DRAWDOWN FOR ALL LAYERS
    SAVE BUDGET
    PRINT HEAD FOR ALL LAYERS
    PRINT BUDGET
 UBDSV1 SAVING "         STORAGE" ON UNIT  53 AT TIME STEP 44, STRESS PERIOD   2
 UBDSV2 SAVING "   CONSTANT HEAD" ON UNIT  53 AT TIME STEP 44, STRESS PERIOD   2
 UBDSV1 SAVING "FLOW RIGHT FACE " ON UNIT  53 AT TIME STEP 44, STRESS PERIOD   2
 UBDSV1 SAVING "FLOW FRONT FACE " ON UNIT  53 AT TIME STEP 44, STRESS PERIOD   2
 UBDSV1 SAVING "FLOW LOWER FACE " ON UNIT  53 AT TIME STEP 44, STRESS PERIOD   2
1
              HEAD IN LAYER   1 AT END OF TIME STEP  44 IN STRESS PERIOD    2
  ---------------------------------------------------------------------------

            1           2           3           4           5           6           7           8           9          10
 ........................................................................................................................
   1    10.00       9.989       9.963       9.893       9.715       9.299       8.419       6.754       3.993      3.7131E-03
   2    10.00       9.989       9.963       9.893       9.715       9.299       8.419       6.754       3.993      3.7131E-03
   3    10.00       9.989       9.963       9.893       9.715       9.299       8.419       6.754       3.993      3.7131E-03
   4    10.00       9.989       9.963       9.893       9.715       9.299       8.419       6.754       3.993      3.7131E-03
   5    10.00       9.989       9.963       9.893       9.715       9.299       8.419       6.754       3.993      3.7131E-03
   6    10.00       9.989       9.963       9.893       9.715       9.299       8.419       6.754       3.993      3.7131E-03
   7    10.00       9.989       9.963       9.893       9.715       9.299       8.419       6.754       3.993      3.7131E-03
   8    10.00       9.989       9.963       9.893       9.715       9.299       8.419       6.754       3.993      3.7131E-03
   9    10.00       9.989       9.963       9.893       9.715       9.299       8.419       6.754       3.993      3.7131E-03
  10    10.00       9.989       9.963       9.893       9.715       9.299       8.419       6.754       3.993      3.7131E-03
1
              HEAD IN LAYER   2 AT END OF TIME STEP  44 IN STRESS PERIOD    2
  ---------------------------------------------------------------------------

            1           2           3           4           5           6           7           8           9          10
 ........................................................................................................................
   1    10.00       9.988       9.960       9.887       9.702       9.274       8.379       6.704       3.946      8.2930E-03
   2    10.00       9.988       9.960       9.887       9.702       9.274       8.379       6.704       3.946      8.2930E-03
   3    10.00       9.988       9.960       9.887       9.702       9.274       8.379       6.704       3.946      8.2930E-03
   4    10.00       9.988       9.960       9.887       9.702       9.274       8.379       6.704       3.946      8.2930E-03
   5    10.00       9.988       9.960       9.887       9.702       9.274       8.379       6.704       3.946      8.2930E-03
   6    10.00       9.988       9.960       9.887       9.702       9.274       8.379       6.704       3.946      8.2930E-03
   7    10.00       9.988       9.960       9.887       9.702       9.274       8.379       6.704       3.946      8.2930E-03
   8    10.00       9.988       9.960       9.887       9.702       9.274       8.379       6.704       3.946      8.2930E-03
   9    10.00       9.988       9.960       9.887       9.702       9.274       8.379       6.704       3.946      8.2930E-03
  10    10.00       9.988       9.960       9.887       9.702       9.274       8.379       6.704       3.946      8.2930E-03
1
              HEAD IN LAYER   3 AT END OF TIME STEP  44 IN STRESS PERIOD    2
  ---------------------------------------------------------------------------

            1           2           3           4           5           6           7           8           9          10
 ........................................................................................................................
   1    10.00       9.987       9.958       9.882       9.692       9.255       8.347       6.660       3.900      9.1968E-03
   2    10.00       9.987       9.958       9.882       9.692       9.255       8.347       6.660       3.900      9.1968E-03
   3    10.00       9.987       9.958       9.882       9.692       9.255       8.347       6.660       3.900      9.1968E-03
   4    10.00       9.987       9.958       9.882       9.692       9.255       8.347       6.660       3.900      9.1968E-03
   5    10.00       9.987       9.958       9.882       9.692       9.255       8.347       6.660       3.900      9.1968E-03
   6    10.00       9.987       9.958       9.882       9.692       9.255       8.347       6.660       3.900      9.1968E-03
   7    10.00       9.987       9.958       9.882       9.692       9.255       8.347       6.660       3.900      9.1968E-03
   8    10.00       9.987       9.958       9.882       9.692       9.255       8.347       6.660       3.900      9.1968E-03
   9    10.00       9.987       9.958       9.882       9.692       9.255       8.347       6.660       3.900      9.1968E-03
  10    10.00       9.987       9.958       9.882       9.692       9.255       8.347       6.660       3.900      9.1968E-03
1
              HEAD IN LAYER   4 AT END OF TIME STEP  44 IN STRESS PERIOD    2
  ---------------------------------------------------------------------------

            1           2           3           4           5           6           7           8           9          10
 ........................................................................................................................
   1    10.00       9.987       9.957       9.879       9.685       9.242       8.326       6.630       3.870      9.2526E-03
   2    10.00       9.987       9.957       9.879       9.685       9.242       8.326       6.630       3.870      9.2526E-03
   3    10.00       9.987       9.957       9.879       9.685       9.242       8.326       6.630       3.870      9.2526E-03
   4    10.00       9.987       9.957       9.879       9.685       9.242       8.326       6.630       3.870      9.2526E-03
   5    10.00       9.987       9.957       9.879       9.685       9.242       8.326       6.630       3.870      9.2526E-03
   6    10.00       9.987       9.957       9.879       9.685       9.242       8.326       6.630       3.870      9.2526E-03
   7    10.00       9.987       9.957       9.879       9.685       9.242       8.326       6.630       3.870      9.2526E-03
   8    10.00       9.987       9.957       9.879       9.685       9.242       8.326       6.630       3.870      9.2526E-03
   9    10.00       9.987       9.957       9.879       9.685       9.242       8.326       6.630       3.870      9.2526E-03
  10    10.00       9.987       9.957       9.879       9.685       9.242       8.326       6.630       3.870      9.2526E-03
1
              HEAD IN LAYER   5 AT END OF TIME STEP  44 IN STRESS PERIOD    2
  ---------------------------------------------------------------------------

            1           2           3           4           5           6           7           8           9          10
 ........................................................................................................................
   1    10.00       9.986       9.956       9.877       9.682       9.236       8.315       6.616       3.855      9.2326E-03
   2    10.00       9.986       9.956       9.877       9.682       9.236       8.315       6.616       3.855      9.2326E-03
   3    10.00       9.986       9.956       9.877       9.682       9.236       8.315       6.616       3.855      9.2326E-03
   4    10.00       9.986       9.956       9.877       9.682       9.236       8.315       6.616       3.855      9.2326E-03
   5    10.00       9.986       9.956       9.877       9.682       9.236       8.315       6.616       3.855      9.2326E-03
   6    10.00       9.986       9.956       9.877       9.682       9.236       8.315       6.616       3.855      9.2326E-03
   7    10.00       9.986       9.956       9.877       9.682       9.236       8.315       6.616       3.855      9.2326E-03
   8    10.00       9.986       9.956       9.877       9.682       9.236       8.315       6.616       3.855      9.2326E-03
   9    10.00       9.986       9.956       9.877       9.682       9.236       8.315       6.616       3.855      9.2326E-03
  10    10.00       9.986       9.956       9.877       9.682       9.236       8.315       6.616       3.855      9.2326E-03

 HEAD WILL BE SAVED ON UNIT   51 AT END OF TIME STEP   44, STRESS PERIOD    2

 DRAWDOWN WILL BE SAVED ON UNIT   52 AT END OF TIME STEP   44, STRESS PERIOD    2
1
  VOLUMETRIC BUDGET FOR ENTIRE MODEL AT END OF TIME STEP   44, STRESS PERIOD   2
  ------------------------------------------------------------------------------

     CUMULATIVE VOLUMES      L**3       RATES FOR THIS TIME STEP      L**3/T
     ------------------                 ------------------------

           IN:                                      IN:
           ---                                      ---
             STORAGE =      230442.4219               STORAGE =        1976.8627
       CONSTANT HEAD =           0.0000         CONSTANT HEAD =           0.0000
               WELLS =           0.0000                 WELLS =           0.0000
     HEAD DEP BOUNDS =          75.6686       HEAD DEP BOUNDS =           7.5780

            TOTAL IN =      230518.0938              TOTAL IN =        1984.4407

          OUT:                                     OUT:
          ----                                     ----
             STORAGE =           0.0000               STORAGE =           0.0000
       CONSTANT HEAD =           0.0000         CONSTANT HEAD =           0.0000
               WELLS =           0.0000                 WELLS =           0.0000
     HEAD DEP BOUNDS =      230518.4375       HEAD DEP BOUNDS =        1984.4011

           TOTAL OUT =      230518.4375             TOTAL OUT =        1984.4011

            IN - OUT =          -0.3438              IN - OUT =       3.9551E-02

 PERCENT DISCREPANCY =          -0.00     PERCENT DISCREPANCY =           0.00






         TIME SUMMARY AT END OF TIME STEP   44 IN STRESS PERIOD    2
                    SECONDS     MINUTES      HOURS       DAYS        YEARS
                    -----------------------------------------------------------
   TIME STEP LENGTH  86400.      1440.0      24.000      1.0000     2.73785E-03
 STRESS PERIOD TIME 3.80160E+06  63360.      1056.0      44.000     0.12047    
         TOTAL TIME 3.88800E+06  64800.      1080.0      45.000     0.12320    
1
 
 SOLVING FOR HEAD 

 OUTPUT CONTROL FOR STRESS PERIOD    2   TIME STEP   45
    SAVE HEAD FOR ALL LAYERS
    SAVE DRAWDOWN FOR ALL LAYERS
    SAVE BUDGET
    PRINT HEAD FOR ALL LAYERS
    PRINT BUDGET
 UBDSV1 SAVING "         STORAGE" ON UNIT  53 AT TIME STEP 45, STRESS PERIOD   2
 UBDSV2 SAVING "   CONSTANT HEAD" ON UNIT  53 AT TIME STEP 45, STRESS PERIOD   2
 UBDSV1 SAVING "FLOW RIGHT FACE " ON UNIT  53 AT TIME STEP 45, STRESS PERIOD   2
 UBDSV1 SAVING "FLOW FRONT FACE " ON UNIT  53 AT TIME STEP 45, STRESS PERIOD   2
 UBDSV1 SAVING "FLOW LOWER FACE " ON UNIT  53 AT TIME STEP 45, STRESS PERIOD   2
1
              HEAD IN LAYER   1 AT END OF TIME STEP  45 IN STRESS PERIOD    2
  ---------------------------------------------------------------------------

            1           2           3           4           5           6           7           8           9          10
 ........................................................................................................................
   1    10.00       9.988       9.960       9.886       9.701       9.273       8.377       6.703       3.950      3.6699E-03
   2    10.00       9.988       9.960       9.886       9.701       9.273       8.377       6.703       3.950      3.6699E-03
   3    10.00       9.988       9.960       9.886       9.701       9.273       8.377       6.703       3.950      3.6699E-03
   4    10.00       9.988       9.960       9.886       9.701       9.273       8.377       6.703       3.950      3.6699E-03
   5    10.00       9.988       9.960       9.886       9.701       9.273       8.377       6.703       3.950      3.6699E-03
   6    10.00       9.988       9.960       9.886       9.701       9.273       8.377       6.703       3.950      3.6699E-03
   7    10.00       9.988       9.960       9.886       9.701       9.273       8.377       6.703       3.950      3.6699E-03
   8    10.00       9.988       9.960       9.886       9.701       9.273       8.377       6.703       3.950      3.6699E-03
   9    10.00       9.988       9.960       9.886       9.701       9.273       8.377       6.703       3.950      3.6699E-03
  10    10.00       9.988       9.960       9.886       9.701       9.273       8.377       6.703       3.950      3.6699E-03
1
              HEAD IN LAYER   2 AT END OF TIME STEP  45 IN STRESS PERIOD    2
  ---------------------------------------------------------------------------

            1           2           3           4           5           6           7           8           9          10
 ........................................................................................................................
   1    10.00       9.987       9.957       9.880       9.688       9.248       8.338       6.653       3.904      8.2050E-03
   2    10.00       9.987       9.957       9.880       9.688       9.248       8.338       6.653       3.904      8.2050E-03
   3    10.00       9.987       9.957       9.880       9.688       9.248       8.338       6.653       3.904      8.2050E-03
   4    10.00       9.987       9.957       9.880       9.688       9.248       8.338       6.653       3.904      8.2050E-03
   5    10.00       9.987       9.957       9.880       9.688       9.248       8.338       6.653       3.904      8.2050E-03
   6    10.00       9.987       9.957       9.880       9.688       9.248       8.338       6.653       3.904      8.2050E-03
   7    10.00       9.987       9.957       9.880       9.688       9.248       8.338       6.653       3.904      8.2050E-03
   8    10.00       9.987       9.957       9.880       9.688       9.248       8.338       6.653       3.904      8.2050E-03
   9    10.00       9.987       9.957       9.880       9.688       9.248       8.338       6.653       3.904      8.2050E-03
  10    10.00       9.987       9.957       9.880       9.688       9.248       8.338       6.653       3.904      8.2050E-03
1
              HEAD IN LAYER   3 AT END OF TIME STEP  45 IN STRESS PERIOD    2
  ---------------------------------------------------------------------------

            1           2           3           4           5           6           7           8           9          10
 ........................................................................................................................
   1    10.00       9.986       9.955       9.875       9.677       9.229       8.306       6.610       3.860      9.1015E-03
   2    10.00       9.986       9.955       9.875       9.677       9.229       8.306       6.610       3.860      9.1015E-03
   3    10.00       9.986       9.955       9.875       9.677       9.229       8.306       6.610       3.860      9.1015E-03
   4    10.00       9.986       9.955       9.875       9.677       9.229       8.306       6.610       3.860      9.1015E-03
   5    10.00       9.986       9.955       9.875       9.677       9.229       8.306       6.610       3.860      9.1015E-03
   6    10.00       9.986       9.955       9.875       9.677       9.229       8.306       6.610       3.860      9.1015E-03
   7    10.00       9.986       9.955       9.875       9.677       9.229       8.306       6.610       3.860      9.1015E-03
   8    10.00       9.986       9.955       9.875       9.677       9.229       8.306       6.610       3.860      9.1015E-03
   9    10.00       9.986       9.955       9.875       9.677       9.229       8.306       6.610       3.860      9.1015E-03
  10    10.00       9.986       9.955       9.875       9.677       9.229       8.306       6.610       3.860      9.1015E-03
1
              HEAD IN LAYER   4 AT END OF TIME STEP  45 IN STRESS PERIOD    2
  ---------------------------------------------------------------------------

            1           2           3           4           5           6           7           8           9          10
 ........................................................................................................................
   1    10.00       9.986       9.954       9.872       9.670       9.216       8.285       6.581       3.830      9.1580E-03
   2    10.00       9.986       9.954       9.872       9.670       9.216       8.285       6.581       3.830      9.1580E-03
   3    10.00       9.986       9.954       9.872       9.670       9.216       8.285       6.581       3.830      9.1580E-03
   4    10.00       9.986       9.954       9.872       9.670       9.216       8.285       6.581       3.830      9.1580E-03
   5    10.00       9.986       9.954       9.872       9.670       9.216       8.285       6.581       3.830      9.1580E-03
   6    10.00       9.986       9.954       9.872       9.670       9.216       8.285       6.581       3.830      9.1580E-03
   7    10.00       9.986       9.954       9.872       9.670       9.216       8.285       6.581       3.830      9.1580E-03
   8    10.00       9.986       9.954       9.872       9.670       9.216       8.285       6.581       3.830      9.1580E-03
   9    10.00       9.986       9.954       9.872       9.670       9.216       8.285       6.581       3.830      9.1580E-03
  10    10.00       9.986       9.954       9.872       9.670       9.216       8.285       6.581       3.830      9.1580E-03
1
              HEAD IN LAYER   5 AT END OF TIME STEP  45 IN STRESS PERIOD    2
  ---------------------------------------------------------------------------

            1           2           3           4           5           6           7           8           9          10
 ........................................................................................................................
   1    10.00       9.985       9.953       9.870       9.667       9.209       8.275       6.567       3.816      9.1388E-03
   2    10.00       9.985       9.953       9.870       9.667       9.209       8.275       6.567       3.816      9.1388E-03
   3    10.00       9.985       9.953       9.870       9.667       9.209       8.275       6.567       3.816      9.1388E-03
   4    10.00       9.985       9.953       9.870       9.667       9.209       8.275       6.567       3.816      9.1388E-03
   5    10.00       9.985       9.953       9.870       9.667       9.209       8.275       6.567       3.816      9.1388E-03
   6    10.00       9.985       9.953       9.870       9.667       9.209       8.275       6.567       3.816      9.1388E-03
   7    10.00       9.985       9.953       9.870       9.667       9.209       8.275       6.567       3.816      9.1388E-03
   8    10.00       9.985       9.953       9.870       9.667       9.209       8.275       6.567       3.816      9.1388E-03
   9    10.00       9.985       9.953       9.870       9.667       9.209       8.275       6.567       3.816      9.1388E-03
  10    10.00       9.985       9.953       9.870       9.667       9.209       8.275       6.567       3.816      9.1388E-03

 HEAD WILL BE SAVED ON UNIT   51 AT END OF TIME STEP   45, STRESS PERIOD    2

 DRAWDOWN WILL BE SAVED ON UNIT   52 AT END OF TIME STEP   45, STRESS PERIOD    2
1
  VOLUMETRIC BUDGET FOR ENTIRE MODEL AT END OF TIME STEP   45, STRESS PERIOD   2
  ------------------------------------------------------------------------------

     CUMULATIVE VOLUMES      L**3       RATES FOR THIS TIME STEP      L**3/T
     ------------------                 ------------------------

           IN:                                      IN:
           ---                                      ---
             STORAGE =      232397.8906               STORAGE =        1955.4689
       CONSTANT HEAD =           0.0000         CONSTANT HEAD =           0.0000
               WELLS =           0.0000                 WELLS =           0.0000
     HEAD DEP BOUNDS =          83.8467       HEAD DEP BOUNDS =           8.1780

            TOTAL IN =      232481.7344              TOTAL IN =        1963.6470

          OUT:                                     OUT:
          ----                                     ----
             STORAGE =           0.0000               STORAGE =           0.0000
       CONSTANT HEAD =           0.0000         CONSTANT HEAD =           0.0000
               WELLS =           0.0000                 WELLS =           0.0000
     HEAD DEP BOUNDS =      232482.0938       HEAD DEP BOUNDS =        1963.6592

           TOTAL OUT =      232482.0938             TOTAL OUT =        1963.6592

            IN - OUT =          -0.3594              IN - OUT =      -1.2207E-02

 PERCENT DISCREPANCY =          -0.00     PERCENT DISCREPANCY =          -0.00






         TIME SUMMARY AT END OF TIME STEP   45 IN STRESS PERIOD    2
                    SECONDS     MINUTES      HOURS       DAYS        YEARS
                    -----------------------------------------------------------
   TIME STEP LENGTH  86400.      1440.0      24.000      1.0000     2.73785E-03
 STRESS PERIOD TIME 3.88800E+06  64800.      1080.0      45.000     0.12320    
         TOTAL TIME 3.97440E+06  66240.      1104.0      46.000     0.12594    
1
 
 SOLVING FOR HEAD 

 OUTPUT CONTROL FOR STRESS PERIOD    2   TIME STEP   46
    SAVE HEAD FOR ALL LAYERS
    SAVE DRAWDOWN FOR ALL LAYERS
    SAVE BUDGET
    PRINT HEAD FOR ALL LAYERS
    PRINT BUDGET
 UBDSV1 SAVING "         STORAGE" ON UNIT  53 AT TIME STEP 46, STRESS PERIOD   2
 UBDSV2 SAVING "   CONSTANT HEAD" ON UNIT  53 AT TIME STEP 46, STRESS PERIOD   2
 UBDSV1 SAVING "FLOW RIGHT FACE " ON UNIT  53 AT TIME STEP 46, STRESS PERIOD   2
 UBDSV1 SAVING "FLOW FRONT FACE " ON UNIT  53 AT TIME STEP 46, STRESS PERIOD   2
 UBDSV1 SAVING "FLOW LOWER FACE " ON UNIT  53 AT TIME STEP 46, STRESS PERIOD   2
1
              HEAD IN LAYER   1 AT END OF TIME STEP  46 IN STRESS PERIOD    2
  ---------------------------------------------------------------------------

            1           2           3           4           5           6           7           8           9          10
 ........................................................................................................................
   1    10.00       9.987       9.957       9.879       9.687       9.247       8.336       6.652       3.908      3.6281E-03
   2    10.00       9.987       9.957       9.879       9.687       9.247       8.336       6.652       3.908      3.6281E-03
   3    10.00       9.987       9.957       9.879       9.687       9.247       8.336       6.652       3.908      3.6281E-03
   4    10.00       9.987       9.957       9.879       9.687       9.247       8.336       6.652       3.908      3.6281E-03
   5    10.00       9.987       9.957       9.879       9.687       9.247       8.336       6.652       3.908      3.6281E-03
   6    10.00       9.987       9.957       9.879       9.687       9.247       8.336       6.652       3.908      3.6281E-03
   7    10.00       9.987       9.957       9.879       9.687       9.247       8.336       6.652       3.908      3.6281E-03
   8    10.00       9.987       9.957       9.879       9.687       9.247       8.336       6.652       3.908      3.6281E-03
   9    10.00       9.987       9.957       9.879       9.687       9.247       8.336       6.652       3.908      3.6281E-03
  10    10.00       9.987       9.957       9.879       9.687       9.247       8.336       6.652       3.908      3.6281E-03
1
              HEAD IN LAYER   2 AT END OF TIME STEP  46 IN STRESS PERIOD    2
  ---------------------------------------------------------------------------

            1           2           3           4           5           6           7           8           9          10
 ........................................................................................................................
   1    10.00       9.986       9.954       9.873       9.673       9.222       8.297       6.603       3.864      8.1197E-03
   2    10.00       9.986       9.954       9.873       9.673       9.222       8.297       6.603       3.864      8.1197E-03
   3    10.00       9.986       9.954       9.873       9.673       9.222       8.297       6.603       3.864      8.1197E-03
   4    10.00       9.986       9.954       9.873       9.673       9.222       8.297       6.603       3.864      8.1197E-03
   5    10.00       9.986       9.954       9.873       9.673       9.222       8.297       6.603       3.864      8.1197E-03
   6    10.00       9.986       9.954       9.873       9.673       9.222       8.297       6.603       3.864      8.1197E-03
   7    10.00       9.986       9.954       9.873       9.673       9.222       8.297       6.603       3.864      8.1197E-03
   8    10.00       9.986       9.954       9.873       9.673       9.222       8.297       6.603       3.864      8.1197E-03
   9    10.00       9.986       9.954       9.873       9.673       9.222       8.297       6.603       3.864      8.1197E-03
  10    10.00       9.986       9.954       9.873       9.673       9.222       8.297       6.603       3.864      8.1197E-03
1
              HEAD IN LAYER   3 AT END OF TIME STEP  46 IN STRESS PERIOD    2
  ---------------------------------------------------------------------------

            1           2           3           4           5           6           7           8           9          10
 ........................................................................................................................
   1    10.00       9.985       9.952       9.868       9.663       9.202       8.266       6.561       3.820      9.0090E-03
   2    10.00       9.985       9.952       9.868       9.663       9.202       8.266       6.561       3.820      9.0090E-03
   3    10.00       9.985       9.952       9.868       9.663       9.202       8.266       6.561       3.820      9.0090E-03
   4    10.00       9.985       9.952       9.868       9.663       9.202       8.266       6.561       3.820      9.0090E-03
   5    10.00       9.985       9.952       9.868       9.663       9.202       8.266       6.561       3.820      9.0090E-03
   6    10.00       9.985       9.952       9.868       9.663       9.202       8.266       6.561       3.820      9.0090E-03
   7    10.00       9.985       9.952       9.868       9.663       9.202       8.266       6.561       3.820      9.0090E-03
   8    10.00       9.985       9.952       9.868       9.663       9.202       8.266       6.561       3.820      9.0090E-03
   9    10.00       9.985       9.952       9.868       9.663       9.202       8.266       6.561       3.820      9.0090E-03
  10    10.00       9.985       9.952       9.868       9.663       9.202       8.266       6.561       3.820      9.0090E-03
1
              HEAD IN LAYER   4 AT END OF TIME STEP  46 IN STRESS PERIOD    2
  ---------------------------------------------------------------------------

            1           2           3           4           5           6           7           8           9          10
 ........................................................................................................................
   1    10.00       9.984       9.951       9.864       9.656       9.189       8.245       6.533       3.792      9.0661E-03
   2    10.00       9.984       9.951       9.864       9.656       9.189       8.245       6.533       3.792      9.0661E-03
   3    10.00       9.984       9.951       9.864       9.656       9.189       8.245       6.533       3.792      9.0661E-03
   4    10.00       9.984       9.951       9.864       9.656       9.189       8.245       6.533       3.792      9.0661E-03
   5    10.00       9.984       9.951       9.864       9.656       9.189       8.245       6.533       3.792      9.0661E-03
   6    10.00       9.984       9.951       9.864       9.656       9.189       8.245       6.533       3.792      9.0661E-03
   7    10.00       9.984       9.951       9.864       9.656       9.189       8.245       6.533       3.792      9.0661E-03
   8    10.00       9.984       9.951       9.864       9.656       9.189       8.245       6.533       3.792      9.0661E-03
   9    10.00       9.984       9.951       9.864       9.656       9.189       8.245       6.533       3.792      9.0661E-03
  10    10.00       9.984       9.951       9.864       9.656       9.189       8.245       6.533       3.792      9.0661E-03
1
              HEAD IN LAYER   5 AT END OF TIME STEP  46 IN STRESS PERIOD    2
  ---------------------------------------------------------------------------

            1           2           3           4           5           6           7           8           9          10
 ........................................................................................................................
   1    10.00       9.984       9.950       9.863       9.652       9.183       8.234       6.519       3.778      9.0477E-03
   2    10.00       9.984       9.950       9.863       9.652       9.183       8.234       6.519       3.778      9.0477E-03
   3    10.00       9.984       9.950       9.863       9.652       9.183       8.234       6.519       3.778      9.0477E-03
   4    10.00       9.984       9.950       9.863       9.652       9.183       8.234       6.519       3.778      9.0477E-03
   5    10.00       9.984       9.950       9.863       9.652       9.183       8.234       6.519       3.778      9.0477E-03
   6    10.00       9.984       9.950       9.863       9.652       9.183       8.234       6.519       3.778      9.0477E-03
   7    10.00       9.984       9.950       9.863       9.652       9.183       8.234       6.519       3.778      9.0477E-03
   8    10.00       9.984       9.950       9.863       9.652       9.183       8.234       6.519       3.778      9.0477E-03
   9    10.00       9.984       9.950       9.863       9.652       9.183       8.234       6.519       3.778      9.0477E-03
  10    10.00       9.984       9.950       9.863       9.652       9.183       8.234       6.519       3.778      9.0477E-03

 HEAD WILL BE SAVED ON UNIT   51 AT END OF TIME STEP   46, STRESS PERIOD    2

 DRAWDOWN WILL BE SAVED ON UNIT   52 AT END OF TIME STEP   46, STRESS PERIOD    2
1
  VOLUMETRIC BUDGET FOR ENTIRE MODEL AT END OF TIME STEP   46, STRESS PERIOD   2
  ------------------------------------------------------------------------------

     CUMULATIVE VOLUMES      L**3       RATES FOR THIS TIME STEP      L**3/T
     ------------------                 ------------------------

           IN:                                      IN:
           ---                                      ---
             STORAGE =      234332.5781               STORAGE =        1934.6948
       CONSTANT HEAD =           0.0000         CONSTANT HEAD =           0.0000
               WELLS =           0.0000                 WELLS =           0.0000
     HEAD DEP BOUNDS =          92.6552       HEAD DEP BOUNDS =           8.8086

            TOTAL IN =      234425.2344              TOTAL IN =        1943.5034

          OUT:                                     OUT:
          ----                                     ----
             STORAGE =           0.0000               STORAGE =           0.0000
       CONSTANT HEAD =           0.0000         CONSTANT HEAD =           0.0000
               WELLS =           0.0000                 WELLS =           0.0000
     HEAD DEP BOUNDS =      234425.6250       HEAD DEP BOUNDS =        1943.5295

           TOTAL OUT =      234425.6250             TOTAL OUT =        1943.5295

            IN - OUT =          -0.3906              IN - OUT =      -2.6123E-02

 PERCENT DISCREPANCY =          -0.00     PERCENT DISCREPANCY =          -0.00






         TIME SUMMARY AT END OF TIME STEP   46 IN STRESS PERIOD    2
                    SECONDS     MINUTES      HOURS       DAYS        YEARS
                    -----------------------------------------------------------
   TIME STEP LENGTH  86400.      1440.0      24.000      1.0000     2.73785E-03
 STRESS PERIOD TIME 3.97440E+06  66240.      1104.0      46.000     0.12594    
         TOTAL TIME 4.06080E+06  67680.      1128.0      47.000     0.12868    
1
 
 SOLVING FOR HEAD 

 OUTPUT CONTROL FOR STRESS PERIOD    2   TIME STEP   47
    SAVE HEAD FOR ALL LAYERS
    SAVE DRAWDOWN FOR ALL LAYERS
    SAVE BUDGET
    PRINT HEAD FOR ALL LAYERS
    PRINT BUDGET
 UBDSV1 SAVING "         STORAGE" ON UNIT  53 AT TIME STEP 47, STRESS PERIOD   2
 UBDSV2 SAVING "   CONSTANT HEAD" ON UNIT  53 AT TIME STEP 47, STRESS PERIOD   2
 UBDSV1 SAVING "FLOW RIGHT FACE " ON UNIT  53 AT TIME STEP 47, STRESS PERIOD   2
 UBDSV1 SAVING "FLOW FRONT FACE " ON UNIT  53 AT TIME STEP 47, STRESS PERIOD   2
 UBDSV1 SAVING "FLOW LOWER FACE " ON UNIT  53 AT TIME STEP 47, STRESS PERIOD   2
1
              HEAD IN LAYER   1 AT END OF TIME STEP  47 IN STRESS PERIOD    2
  ---------------------------------------------------------------------------

            1           2           3           4           5           6           7           8           9          10
 ........................................................................................................................
   1    10.00       9.986       9.954       9.872       9.672       9.220       8.296       6.602       3.868      3.5875E-03
   2    10.00       9.986       9.954       9.872       9.672       9.220       8.296       6.602       3.868      3.5875E-03
   3    10.00       9.986       9.954       9.872       9.672       9.220       8.296       6.602       3.868      3.5875E-03
   4    10.00       9.986       9.954       9.872       9.672       9.220       8.296       6.602       3.868      3.5875E-03
   5    10.00       9.986       9.954       9.872       9.672       9.220       8.296       6.602       3.868      3.5875E-03
   6    10.00       9.986       9.954       9.872       9.672       9.220       8.296       6.602       3.868      3.5875E-03
   7    10.00       9.986       9.954       9.872       9.672       9.220       8.296       6.602       3.868      3.5875E-03
   8    10.00       9.986       9.954       9.872       9.672       9.220       8.296       6.602       3.868      3.5875E-03
   9    10.00       9.986       9.954       9.872       9.672       9.220       8.296       6.602       3.868      3.5875E-03
  10    10.00       9.986       9.954       9.872       9.672       9.220       8.296       6.602       3.868      3.5875E-03
1
              HEAD IN LAYER   2 AT END OF TIME STEP  47 IN STRESS PERIOD    2
  ---------------------------------------------------------------------------

            1           2           3           4           5           6           7           8           9          10
 ........................................................................................................................
   1    10.00       9.985       9.951       9.866       9.658       9.195       8.257       6.554       3.825      8.0368E-03
   2    10.00       9.985       9.951       9.866       9.658       9.195       8.257       6.554       3.825      8.0368E-03
   3    10.00       9.985       9.951       9.866       9.658       9.195       8.257       6.554       3.825      8.0368E-03
   4    10.00       9.985       9.951       9.866       9.658       9.195       8.257       6.554       3.825      8.0368E-03
   5    10.00       9.985       9.951       9.866       9.658       9.195       8.257       6.554       3.825      8.0368E-03
   6    10.00       9.985       9.951       9.866       9.658       9.195       8.257       6.554       3.825      8.0368E-03
   7    10.00       9.985       9.951       9.866       9.658       9.195       8.257       6.554       3.825      8.0368E-03
   8    10.00       9.985       9.951       9.866       9.658       9.195       8.257       6.554       3.825      8.0368E-03
   9    10.00       9.985       9.951       9.866       9.658       9.195       8.257       6.554       3.825      8.0368E-03
  10    10.00       9.985       9.951       9.866       9.658       9.195       8.257       6.554       3.825      8.0368E-03
1
              HEAD IN LAYER   3 AT END OF TIME STEP  47 IN STRESS PERIOD    2
  ---------------------------------------------------------------------------

            1           2           3           4           5           6           7           8           9          10
 ........................................................................................................................
   1    10.00       9.984       9.949       9.860       9.648       9.176       8.226       6.513       3.782      8.9192E-03
   2    10.00       9.984       9.949       9.860       9.648       9.176       8.226       6.513       3.782      8.9192E-03
   3    10.00       9.984       9.949       9.860       9.648       9.176       8.226       6.513       3.782      8.9192E-03
   4    10.00       9.984       9.949       9.860       9.648       9.176       8.226       6.513       3.782      8.9192E-03
   5    10.00       9.984       9.949       9.860       9.648       9.176       8.226       6.513       3.782      8.9192E-03
   6    10.00       9.984       9.949       9.860       9.648       9.176       8.226       6.513       3.782      8.9192E-03
   7    10.00       9.984       9.949       9.860       9.648       9.176       8.226       6.513       3.782      8.9192E-03
   8    10.00       9.984       9.949       9.860       9.648       9.176       8.226       6.513       3.782      8.9192E-03
   9    10.00       9.984       9.949       9.860       9.648       9.176       8.226       6.513       3.782      8.9192E-03
  10    10.00       9.984       9.949       9.860       9.648       9.176       8.226       6.513       3.782      8.9192E-03
1
              HEAD IN LAYER   4 AT END OF TIME STEP  47 IN STRESS PERIOD    2
  ---------------------------------------------------------------------------

            1           2           3           4           5           6           7           8           9          10
 ........................................................................................................................
   1    10.00       9.983       9.947       9.857       9.640       9.163       8.205       6.485       3.754      8.9769E-03
   2    10.00       9.983       9.947       9.857       9.640       9.163       8.205       6.485       3.754      8.9769E-03
   3    10.00       9.983       9.947       9.857       9.640       9.163       8.205       6.485       3.754      8.9769E-03
   4    10.00       9.983       9.947       9.857       9.640       9.163       8.205       6.485       3.754      8.9769E-03
   5    10.00       9.983       9.947       9.857       9.640       9.163       8.205       6.485       3.754      8.9769E-03
   6    10.00       9.983       9.947       9.857       9.640       9.163       8.205       6.485       3.754      8.9769E-03
   7    10.00       9.983       9.947       9.857       9.640       9.163       8.205       6.485       3.754      8.9769E-03
   8    10.00       9.983       9.947       9.857       9.640       9.163       8.205       6.485       3.754      8.9769E-03
   9    10.00       9.983       9.947       9.857       9.640       9.163       8.205       6.485       3.754      8.9769E-03
  10    10.00       9.983       9.947       9.857       9.640       9.163       8.205       6.485       3.754      8.9769E-03
1
              HEAD IN LAYER   5 AT END OF TIME STEP  47 IN STRESS PERIOD    2
  ---------------------------------------------------------------------------

            1           2           3           4           5           6           7           8           9          10
 ........................................................................................................................
   1    10.00       9.983       9.947       9.855       9.637       9.156       8.195       6.471       3.741      8.9591E-03
   2    10.00       9.983       9.947       9.855       9.637       9.156       8.195       6.471       3.741      8.9591E-03
   3    10.00       9.983       9.947       9.855       9.637       9.156       8.195       6.471       3.741      8.9591E-03
   4    10.00       9.983       9.947       9.855       9.637       9.156       8.195       6.471       3.741      8.9591E-03
   5    10.00       9.983       9.947       9.855       9.637       9.156       8.195       6.471       3.741      8.9591E-03
   6    10.00       9.983       9.947       9.855       9.637       9.156       8.195       6.471       3.741      8.9591E-03
   7    10.00       9.983       9.947       9.855       9.637       9.156       8.195       6.471       3.741      8.9591E-03
   8    10.00       9.983       9.947       9.855       9.637       9.156       8.195       6.471       3.741      8.9591E-03
   9    10.00       9.983       9.947       9.855       9.637       9.156       8.195       6.471       3.741      8.9591E-03
  10    10.00       9.983       9.947       9.855       9.637       9.156       8.195       6.471       3.741      8.9591E-03

 HEAD WILL BE SAVED ON UNIT   51 AT END OF TIME STEP   47, STRESS PERIOD    2

 DRAWDOWN WILL BE SAVED ON UNIT   52 AT END OF TIME STEP   47, STRESS PERIOD    2
1
  VOLUMETRIC BUDGET FOR ENTIRE MODEL AT END OF TIME STEP   47, STRESS PERIOD   2
  ------------------------------------------------------------------------------

     CUMULATIVE VOLUMES      L**3       RATES FOR THIS TIME STEP      L**3/T
     ------------------                 ------------------------

           IN:                                      IN:
           ---                                      ---
             STORAGE =      236247.0312               STORAGE =        1914.4587
       CONSTANT HEAD =           0.0000         CONSTANT HEAD =           0.0000
               WELLS =           0.0000                 WELLS =           0.0000
     HEAD DEP BOUNDS =         102.1249       HEAD DEP BOUNDS =           9.4697

            TOTAL IN =      236349.1562              TOTAL IN =        1923.9283

          OUT:                                     OUT:
          ----                                     ----
             STORAGE =           0.0000               STORAGE =           0.0000
       CONSTANT HEAD =           0.0000         CONSTANT HEAD =           0.0000
               WELLS =           0.0000                 WELLS =           0.0000
     HEAD DEP BOUNDS =      236349.5938       HEAD DEP BOUNDS =        1923.9752

           TOTAL OUT =      236349.5938             TOTAL OUT =        1923.9752

            IN - OUT =          -0.4375              IN - OUT =      -4.6875E-02

 PERCENT DISCREPANCY =          -0.00     PERCENT DISCREPANCY =          -0.00






         TIME SUMMARY AT END OF TIME STEP   47 IN STRESS PERIOD    2
                    SECONDS     MINUTES      HOURS       DAYS        YEARS
                    -----------------------------------------------------------
   TIME STEP LENGTH  86400.      1440.0      24.000      1.0000     2.73785E-03
 STRESS PERIOD TIME 4.06080E+06  67680.      1128.0      47.000     0.12868    
         TOTAL TIME 4.14720E+06  69120.      1152.0      48.000     0.13142    
1
 
 SOLVING FOR HEAD 

 OUTPUT CONTROL FOR STRESS PERIOD    2   TIME STEP   48
    SAVE HEAD FOR ALL LAYERS
    SAVE DRAWDOWN FOR ALL LAYERS
    SAVE BUDGET
    PRINT HEAD FOR ALL LAYERS
    PRINT BUDGET
 UBDSV1 SAVING "         STORAGE" ON UNIT  53 AT TIME STEP 48, STRESS PERIOD   2
 UBDSV2 SAVING "   CONSTANT HEAD" ON UNIT  53 AT TIME STEP 48, STRESS PERIOD   2
 UBDSV1 SAVING "FLOW RIGHT FACE " ON UNIT  53 AT TIME STEP 48, STRESS PERIOD   2
 UBDSV1 SAVING "FLOW FRONT FACE " ON UNIT  53 AT TIME STEP 48, STRESS PERIOD   2
 UBDSV1 SAVING "FLOW LOWER FACE " ON UNIT  53 AT TIME STEP 48, STRESS PERIOD   2
1
              HEAD IN LAYER   1 AT END OF TIME STEP  48 IN STRESS PERIOD    2
  ---------------------------------------------------------------------------

            1           2           3           4           5           6           7           8           9          10
 ........................................................................................................................
   1    10.00       9.985       9.951       9.865       9.657       9.194       8.255       6.554       3.828      3.5483E-03
   2    10.00       9.985       9.951       9.865       9.657       9.194       8.255       6.554       3.828      3.5483E-03
   3    10.00       9.985       9.951       9.865       9.657       9.194       8.255       6.554       3.828      3.5483E-03
   4    10.00       9.985       9.951       9.865       9.657       9.194       8.255       6.554       3.828      3.5483E-03
   5    10.00       9.985       9.951       9.865       9.657       9.194       8.255       6.554       3.828      3.5483E-03
   6    10.00       9.985       9.951       9.865       9.657       9.194       8.255       6.554       3.828      3.5483E-03
   7    10.00       9.985       9.951       9.865       9.657       9.194       8.255       6.554       3.828      3.5483E-03
   8    10.00       9.985       9.951       9.865       9.657       9.194       8.255       6.554       3.828      3.5483E-03
   9    10.00       9.985       9.951       9.865       9.657       9.194       8.255       6.554       3.828      3.5483E-03
  10    10.00       9.985       9.951       9.865       9.657       9.194       8.255       6.554       3.828      3.5483E-03
1
              HEAD IN LAYER   2 AT END OF TIME STEP  48 IN STRESS PERIOD    2
  ---------------------------------------------------------------------------

            1           2           3           4           5           6           7           8           9          10
 ........................................................................................................................
   1    10.00       9.983       9.948       9.858       9.643       9.169       8.217       6.507       3.787      7.9563E-03
   2    10.00       9.983       9.948       9.858       9.643       9.169       8.217       6.507       3.787      7.9563E-03
   3    10.00       9.983       9.948       9.858       9.643       9.169       8.217       6.507       3.787      7.9563E-03
   4    10.00       9.983       9.948       9.858       9.643       9.169       8.217       6.507       3.787      7.9563E-03
   5    10.00       9.983       9.948       9.858       9.643       9.169       8.217       6.507       3.787      7.9563E-03
   6    10.00       9.983       9.948       9.858       9.643       9.169       8.217       6.507       3.787      7.9563E-03
   7    10.00       9.983       9.948       9.858       9.643       9.169       8.217       6.507       3.787      7.9563E-03
   8    10.00       9.983       9.948       9.858       9.643       9.169       8.217       6.507       3.787      7.9563E-03
   9    10.00       9.983       9.948       9.858       9.643       9.169       8.217       6.507       3.787      7.9563E-03
  10    10.00       9.983       9.948       9.858       9.643       9.169       8.217       6.507       3.787      7.9563E-03
1
              HEAD IN LAYER   3 AT END OF TIME STEP  48 IN STRESS PERIOD    2
  ---------------------------------------------------------------------------

            1           2           3           4           5           6           7           8           9          10
 ........................................................................................................................
   1    10.00       9.983       9.945       9.853       9.632       9.149       8.186       6.466       3.745      8.8319E-03
   2    10.00       9.983       9.945       9.853       9.632       9.149       8.186       6.466       3.745      8.8319E-03
   3    10.00       9.983       9.945       9.853       9.632       9.149       8.186       6.466       3.745      8.8319E-03
   4    10.00       9.983       9.945       9.853       9.632       9.149       8.186       6.466       3.745      8.8319E-03
   5    10.00       9.983       9.945       9.853       9.632       9.149       8.186       6.466       3.745      8.8319E-03
   6    10.00       9.983       9.945       9.853       9.632       9.149       8.186       6.466       3.745      8.8319E-03
   7    10.00       9.983       9.945       9.853       9.632       9.149       8.186       6.466       3.745      8.8319E-03
   8    10.00       9.983       9.945       9.853       9.632       9.149       8.186       6.466       3.745      8.8319E-03
   9    10.00       9.983       9.945       9.853       9.632       9.149       8.186       6.466       3.745      8.8319E-03
  10    10.00       9.983       9.945       9.853       9.632       9.149       8.186       6.466       3.745      8.8319E-03
1
              HEAD IN LAYER   4 AT END OF TIME STEP  48 IN STRESS PERIOD    2
  ---------------------------------------------------------------------------

            1           2           3           4           5           6           7           8           9          10
 ........................................................................................................................
   1    10.00       9.982       9.944       9.849       9.625       9.136       8.165       6.439       3.718      8.8901E-03
   2    10.00       9.982       9.944       9.849       9.625       9.136       8.165       6.439       3.718      8.8901E-03
   3    10.00       9.982       9.944       9.849       9.625       9.136       8.165       6.439       3.718      8.8901E-03
   4    10.00       9.982       9.944       9.849       9.625       9.136       8.165       6.439       3.718      8.8901E-03
   5    10.00       9.982       9.944       9.849       9.625       9.136       8.165       6.439       3.718      8.8901E-03
   6    10.00       9.982       9.944       9.849       9.625       9.136       8.165       6.439       3.718      8.8901E-03
   7    10.00       9.982       9.944       9.849       9.625       9.136       8.165       6.439       3.718      8.8901E-03
   8    10.00       9.982       9.944       9.849       9.625       9.136       8.165       6.439       3.718      8.8901E-03
   9    10.00       9.982       9.944       9.849       9.625       9.136       8.165       6.439       3.718      8.8901E-03
  10    10.00       9.982       9.944       9.849       9.625       9.136       8.165       6.439       3.718      8.8901E-03
1
              HEAD IN LAYER   5 AT END OF TIME STEP  48 IN STRESS PERIOD    2
  ---------------------------------------------------------------------------

            1           2           3           4           5           6           7           8           9          10
 ........................................................................................................................
   1    10.00       9.982       9.943       9.848       9.622       9.129       8.155       6.425       3.705      8.8730E-03
   2    10.00       9.982       9.943       9.848       9.622       9.129       8.155       6.425       3.705      8.8730E-03
   3    10.00       9.982       9.943       9.848       9.622       9.129       8.155       6.425       3.705      8.8730E-03
   4    10.00       9.982       9.943       9.848       9.622       9.129       8.155       6.425       3.705      8.8730E-03
   5    10.00       9.982       9.943       9.848       9.622       9.129       8.155       6.425       3.705      8.8730E-03
   6    10.00       9.982       9.943       9.848       9.622       9.129       8.155       6.425       3.705      8.8730E-03
   7    10.00       9.982       9.943       9.848       9.622       9.129       8.155       6.425       3.705      8.8730E-03
   8    10.00       9.982       9.943       9.848       9.622       9.129       8.155       6.425       3.705      8.8730E-03
   9    10.00       9.982       9.943       9.848       9.622       9.129       8.155       6.425       3.705      8.8730E-03
  10    10.00       9.982       9.943       9.848       9.622       9.129       8.155       6.425       3.705      8.8730E-03

 HEAD WILL BE SAVED ON UNIT   51 AT END OF TIME STEP   48, STRESS PERIOD    2

 DRAWDOWN WILL BE SAVED ON UNIT   52 AT END OF TIME STEP   48, STRESS PERIOD    2
1
  VOLUMETRIC BUDGET FOR ENTIRE MODEL AT END OF TIME STEP   48, STRESS PERIOD   2
  ------------------------------------------------------------------------------

     CUMULATIVE VOLUMES      L**3       RATES FOR THIS TIME STEP      L**3/T
     ------------------                 ------------------------

           IN:                                      IN:
           ---                                      ---
             STORAGE =      238141.8125               STORAGE =        1894.7749
       CONSTANT HEAD =           0.0000         CONSTANT HEAD =           0.0000
               WELLS =           0.0000                 WELLS =           0.0000
     HEAD DEP BOUNDS =         112.3545       HEAD DEP BOUNDS =          10.2296

            TOTAL IN =      238254.1719              TOTAL IN =        1905.0045

          OUT:                                     OUT:
          ----                                     ----
             STORAGE =           0.0000               STORAGE =           0.0000
       CONSTANT HEAD =           0.0000         CONSTANT HEAD =           0.0000
               WELLS =           0.0000                 WELLS =           0.0000
     HEAD DEP BOUNDS =      238254.5781       HEAD DEP BOUNDS =        1904.9801

           TOTAL OUT =      238254.5781             TOTAL OUT =        1904.9801

            IN - OUT =          -0.4062              IN - OUT =       2.4414E-02

 PERCENT DISCREPANCY =          -0.00     PERCENT DISCREPANCY =           0.00






         TIME SUMMARY AT END OF TIME STEP   48 IN STRESS PERIOD    2
                    SECONDS     MINUTES      HOURS       DAYS        YEARS
                    -----------------------------------------------------------
   TIME STEP LENGTH  86400.      1440.0      24.000      1.0000     2.73785E-03
 STRESS PERIOD TIME 4.14720E+06  69120.      1152.0      48.000     0.13142    
         TOTAL TIME 4.23360E+06  70560.      1176.0      49.000     0.13415    
1
 
 SOLVING FOR HEAD 

 OUTPUT CONTROL FOR STRESS PERIOD    2   TIME STEP   49
    SAVE HEAD FOR ALL LAYERS
    SAVE DRAWDOWN FOR ALL LAYERS
    SAVE BUDGET
    PRINT HEAD FOR ALL LAYERS
    PRINT BUDGET
 UBDSV1 SAVING "         STORAGE" ON UNIT  53 AT TIME STEP 49, STRESS PERIOD   2
 UBDSV2 SAVING "   CONSTANT HEAD" ON UNIT  53 AT TIME STEP 49, STRESS PERIOD   2
 UBDSV1 SAVING "FLOW RIGHT FACE " ON UNIT  53 AT TIME STEP 49, STRESS PERIOD   2
 UBDSV1 SAVING "FLOW FRONT FACE " ON UNIT  53 AT TIME STEP 49, STRESS PERIOD   2
 UBDSV1 SAVING "FLOW LOWER FACE " ON UNIT  53 AT TIME STEP 49, STRESS PERIOD   2
1
              HEAD IN LAYER   1 AT END OF TIME STEP  49 IN STRESS PERIOD    2
  ---------------------------------------------------------------------------

            1           2           3           4           5           6           7           8           9          10
 ........................................................................................................................
   1    10.00       9.983       9.948       9.858       9.642       9.167       8.216       6.506       3.790      3.5101E-03
   2    10.00       9.983       9.948       9.858       9.642       9.167       8.216       6.506       3.790      3.5101E-03
   3    10.00       9.983       9.948       9.858       9.642       9.167       8.216       6.506       3.790      3.5101E-03
   4    10.00       9.983       9.948       9.858       9.642       9.167       8.216       6.506       3.790      3.5101E-03
   5    10.00       9.983       9.948       9.858       9.642       9.167       8.216       6.506       3.790      3.5101E-03
   6    10.00       9.983       9.948       9.858       9.642       9.167       8.216       6.506       3.790      3.5101E-03
   7    10.00       9.983       9.948       9.858       9.642       9.167       8.216       6.506       3.790      3.5101E-03
   8    10.00       9.983       9.948       9.858       9.642       9.167       8.216       6.506       3.790      3.5101E-03
   9    10.00       9.983       9.948       9.858       9.642       9.167       8.216       6.506       3.790      3.5101E-03
  10    10.00       9.983       9.948       9.858       9.642       9.167       8.216       6.506       3.790      3.5101E-03
1
              HEAD IN LAYER   2 AT END OF TIME STEP  49 IN STRESS PERIOD    2
  ---------------------------------------------------------------------------

            1           2           3           4           5           6           7           8           9          10
 ........................................................................................................................
   1    10.00       9.982       9.944       9.851       9.628       9.142       8.178       6.460       3.750      7.8781E-03
   2    10.00       9.982       9.944       9.851       9.628       9.142       8.178       6.460       3.750      7.8781E-03
   3    10.00       9.982       9.944       9.851       9.628       9.142       8.178       6.460       3.750      7.8781E-03
   4    10.00       9.982       9.944       9.851       9.628       9.142       8.178       6.460       3.750      7.8781E-03
   5    10.00       9.982       9.944       9.851       9.628       9.142       8.178       6.460       3.750      7.8781E-03
   6    10.00       9.982       9.944       9.851       9.628       9.142       8.178       6.460       3.750      7.8781E-03
   7    10.00       9.982       9.944       9.851       9.628       9.142       8.178       6.460       3.750      7.8781E-03
   8    10.00       9.982       9.944       9.851       9.628       9.142       8.178       6.460       3.750      7.8781E-03
   9    10.00       9.982       9.944       9.851       9.628       9.142       8.178       6.460       3.750      7.8781E-03
  10    10.00       9.982       9.944       9.851       9.628       9.142       8.178       6.460       3.750      7.8781E-03
1
              HEAD IN LAYER   3 AT END OF TIME STEP  49 IN STRESS PERIOD    2
  ---------------------------------------------------------------------------

            1           2           3           4           5           6           7           8           9          10
 ........................................................................................................................
   1    10.00       9.981       9.942       9.845       9.617       9.122       8.147       6.420       3.710      8.7471E-03
   2    10.00       9.981       9.942       9.845       9.617       9.122       8.147       6.420       3.710      8.7471E-03
   3    10.00       9.981       9.942       9.845       9.617       9.122       8.147       6.420       3.710      8.7471E-03
   4    10.00       9.981       9.942       9.845       9.617       9.122       8.147       6.420       3.710      8.7471E-03
   5    10.00       9.981       9.942       9.845       9.617       9.122       8.147       6.420       3.710      8.7471E-03
   6    10.00       9.981       9.942       9.845       9.617       9.122       8.147       6.420       3.710      8.7471E-03
   7    10.00       9.981       9.942       9.845       9.617       9.122       8.147       6.420       3.710      8.7471E-03
   8    10.00       9.981       9.942       9.845       9.617       9.122       8.147       6.420       3.710      8.7471E-03
   9    10.00       9.981       9.942       9.845       9.617       9.122       8.147       6.420       3.710      8.7471E-03
  10    10.00       9.981       9.942       9.845       9.617       9.122       8.147       6.420       3.710      8.7471E-03
1
              HEAD IN LAYER   4 AT END OF TIME STEP  49 IN STRESS PERIOD    2
  ---------------------------------------------------------------------------

            1           2           3           4           5           6           7           8           9          10
 ........................................................................................................................
   1    10.00       9.981       9.940       9.842       9.610       9.109       8.126       6.393       3.683      8.8057E-03
   2    10.00       9.981       9.940       9.842       9.610       9.109       8.126       6.393       3.683      8.8057E-03
   3    10.00       9.981       9.940       9.842       9.610       9.109       8.126       6.393       3.683      8.8057E-03
   4    10.00       9.981       9.940       9.842       9.610       9.109       8.126       6.393       3.683      8.8057E-03
   5    10.00       9.981       9.940       9.842       9.610       9.109       8.126       6.393       3.683      8.8057E-03
   6    10.00       9.981       9.940       9.842       9.610       9.109       8.126       6.393       3.683      8.8057E-03
   7    10.00       9.981       9.940       9.842       9.610       9.109       8.126       6.393       3.683      8.8057E-03
   8    10.00       9.981       9.940       9.842       9.610       9.109       8.126       6.393       3.683      8.8057E-03
   9    10.00       9.981       9.940       9.842       9.610       9.109       8.126       6.393       3.683      8.8057E-03
  10    10.00       9.981       9.940       9.842       9.610       9.109       8.126       6.393       3.683      8.8057E-03
1
              HEAD IN LAYER   5 AT END OF TIME STEP  49 IN STRESS PERIOD    2
  ---------------------------------------------------------------------------

            1           2           3           4           5           6           7           8           9          10
 ........................................................................................................................
   1    10.00       9.980       9.940       9.840       9.606       9.103       8.116       6.379       3.670      8.7893E-03
   2    10.00       9.980       9.940       9.840       9.606       9.103       8.116       6.379       3.670      8.7893E-03
   3    10.00       9.980       9.940       9.840       9.606       9.103       8.116       6.379       3.670      8.7893E-03
   4    10.00       9.980       9.940       9.840       9.606       9.103       8.116       6.379       3.670      8.7893E-03
   5    10.00       9.980       9.940       9.840       9.606       9.103       8.116       6.379       3.670      8.7893E-03
   6    10.00       9.980       9.940       9.840       9.606       9.103       8.116       6.379       3.670      8.7893E-03
   7    10.00       9.980       9.940       9.840       9.606       9.103       8.116       6.379       3.670      8.7893E-03
   8    10.00       9.980       9.940       9.840       9.606       9.103       8.116       6.379       3.670      8.7893E-03
   9    10.00       9.980       9.940       9.840       9.606       9.103       8.116       6.379       3.670      8.7893E-03
  10    10.00       9.980       9.940       9.840       9.606       9.103       8.116       6.379       3.670      8.7893E-03

 HEAD WILL BE SAVED ON UNIT   51 AT END OF TIME STEP   49, STRESS PERIOD    2

 DRAWDOWN WILL BE SAVED ON UNIT   52 AT END OF TIME STEP   49, STRESS PERIOD    2
1
  VOLUMETRIC BUDGET FOR ENTIRE MODEL AT END OF TIME STEP   49, STRESS PERIOD   2
  ------------------------------------------------------------------------------

     CUMULATIVE VOLUMES      L**3       RATES FOR THIS TIME STEP      L**3/T
     ------------------                 ------------------------

           IN:                                      IN:
           ---                                      ---
             STORAGE =      240017.3438               STORAGE =        1875.5250
       CONSTANT HEAD =           0.0000         CONSTANT HEAD =           0.0000
               WELLS =           0.0000                 WELLS =           0.0000
     HEAD DEP BOUNDS =         123.3077       HEAD DEP BOUNDS =          10.9532

            TOTAL IN =      240140.6562              TOTAL IN =        1886.4781

          OUT:                                     OUT:
          ----                                     ----
             STORAGE =           0.0000               STORAGE =           0.0000
       CONSTANT HEAD =           0.0000         CONSTANT HEAD =           0.0000
               WELLS =           0.0000                 WELLS =           0.0000
     HEAD DEP BOUNDS =      240141.0938       HEAD DEP BOUNDS =        1886.5114

           TOTAL OUT =      240141.0938             TOTAL OUT =        1886.5114

            IN - OUT =          -0.4375              IN - OUT =      -3.3203E-02

 PERCENT DISCREPANCY =          -0.00     PERCENT DISCREPANCY =          -0.00






         TIME SUMMARY AT END OF TIME STEP   49 IN STRESS PERIOD    2
                    SECONDS     MINUTES      HOURS       DAYS        YEARS
                    -----------------------------------------------------------
   TIME STEP LENGTH  86400.      1440.0      24.000      1.0000     2.73785E-03
 STRESS PERIOD TIME 4.23360E+06  70560.      1176.0      49.000     0.13415    
         TOTAL TIME 4.32000E+06  72000.      1200.0      50.000     0.13689    
1
 
 SOLVING FOR HEAD 

 OUTPUT CONTROL FOR STRESS PERIOD    2   TIME STEP   50
    SAVE HEAD FOR ALL LAYERS
    SAVE DRAWDOWN FOR ALL LAYERS
    SAVE BUDGET
    PRINT HEAD FOR ALL LAYERS
    PRINT BUDGET
 UBDSV1 SAVING "         STORAGE" ON UNIT  53 AT TIME STEP 50, STRESS PERIOD   2
 UBDSV2 SAVING "   CONSTANT HEAD" ON UNIT  53 AT TIME STEP 50, STRESS PERIOD   2
 UBDSV1 SAVING "FLOW RIGHT FACE " ON UNIT  53 AT TIME STEP 50, STRESS PERIOD   2
 UBDSV1 SAVING "FLOW FRONT FACE " ON UNIT  53 AT TIME STEP 50, STRESS PERIOD   2
 UBDSV1 SAVING "FLOW LOWER FACE " ON UNIT  53 AT TIME STEP 50, STRESS PERIOD   2
1
              HEAD IN LAYER   1 AT END OF TIME STEP  50 IN STRESS PERIOD    2
  ---------------------------------------------------------------------------

            1           2           3           4           5           6           7           8           9          10
 ........................................................................................................................
   1    10.00       9.982       9.944       9.850       9.627       9.141       8.176       6.459       3.753      3.4730E-03
   2    10.00       9.982       9.944       9.850       9.627       9.141       8.176       6.459       3.753      3.4730E-03
   3    10.00       9.982       9.944       9.850       9.627       9.141       8.176       6.459       3.753      3.4730E-03
   4    10.00       9.982       9.944       9.850       9.627       9.141       8.176       6.459       3.753      3.4730E-03
   5    10.00       9.982       9.944       9.850       9.627       9.141       8.176       6.459       3.753      3.4730E-03
   6    10.00       9.982       9.944       9.850       9.627       9.141       8.176       6.459       3.753      3.4730E-03
   7    10.00       9.982       9.944       9.850       9.627       9.141       8.176       6.459       3.753      3.4730E-03
   8    10.00       9.982       9.944       9.850       9.627       9.141       8.176       6.459       3.753      3.4730E-03
   9    10.00       9.982       9.944       9.850       9.627       9.141       8.176       6.459       3.753      3.4730E-03
  10    10.00       9.982       9.944       9.850       9.627       9.141       8.176       6.459       3.753      3.4730E-03
1
              HEAD IN LAYER   2 AT END OF TIME STEP  50 IN STRESS PERIOD    2
  ---------------------------------------------------------------------------

            1           2           3           4           5           6           7           8           9          10
 ........................................................................................................................
   1    10.00       9.981       9.941       9.843       9.613       9.115       8.138       6.414       3.714      7.8020E-03
   2    10.00       9.981       9.941       9.843       9.613       9.115       8.138       6.414       3.714      7.8020E-03
   3    10.00       9.981       9.941       9.843       9.613       9.115       8.138       6.414       3.714      7.8020E-03
   4    10.00       9.981       9.941       9.843       9.613       9.115       8.138       6.414       3.714      7.8020E-03
   5    10.00       9.981       9.941       9.843       9.613       9.115       8.138       6.414       3.714      7.8020E-03
   6    10.00       9.981       9.941       9.843       9.613       9.115       8.138       6.414       3.714      7.8020E-03
   7    10.00       9.981       9.941       9.843       9.613       9.115       8.138       6.414       3.714      7.8020E-03
   8    10.00       9.981       9.941       9.843       9.613       9.115       8.138       6.414       3.714      7.8020E-03
   9    10.00       9.981       9.941       9.843       9.613       9.115       8.138       6.414       3.714      7.8020E-03
  10    10.00       9.981       9.941       9.843       9.613       9.115       8.138       6.414       3.714      7.8020E-03
1
              HEAD IN LAYER   3 AT END OF TIME STEP  50 IN STRESS PERIOD    2
  ---------------------------------------------------------------------------

            1           2           3           4           5           6           7           8           9          10
 ........................................................................................................................
   1    10.00       9.980       9.938       9.837       9.602       9.096       8.108       6.374       3.675      8.6645E-03
   2    10.00       9.980       9.938       9.837       9.602       9.096       8.108       6.374       3.675      8.6645E-03
   3    10.00       9.980       9.938       9.837       9.602       9.096       8.108       6.374       3.675      8.6645E-03
   4    10.00       9.980       9.938       9.837       9.602       9.096       8.108       6.374       3.675      8.6645E-03
   5    10.00       9.980       9.938       9.837       9.602       9.096       8.108       6.374       3.675      8.6645E-03
   6    10.00       9.980       9.938       9.837       9.602       9.096       8.108       6.374       3.675      8.6645E-03
   7    10.00       9.980       9.938       9.837       9.602       9.096       8.108       6.374       3.675      8.6645E-03
   8    10.00       9.980       9.938       9.837       9.602       9.096       8.108       6.374       3.675      8.6645E-03
   9    10.00       9.980       9.938       9.837       9.602       9.096       8.108       6.374       3.675      8.6645E-03
  10    10.00       9.980       9.938       9.837       9.602       9.096       8.108       6.374       3.675      8.6645E-03
1
              HEAD IN LAYER   4 AT END OF TIME STEP  50 IN STRESS PERIOD    2
  ---------------------------------------------------------------------------

            1           2           3           4           5           6           7           8           9          10
 ........................................................................................................................
   1    10.00       9.979       9.937       9.834       9.594       9.082       8.088       6.348       3.649      8.7236E-03
   2    10.00       9.979       9.937       9.834       9.594       9.082       8.088       6.348       3.649      8.7236E-03
   3    10.00       9.979       9.937       9.834       9.594       9.082       8.088       6.348       3.649      8.7236E-03
   4    10.00       9.979       9.937       9.834       9.594       9.082       8.088       6.348       3.649      8.7236E-03
   5    10.00       9.979       9.937       9.834       9.594       9.082       8.088       6.348       3.649      8.7236E-03
   6    10.00       9.979       9.937       9.834       9.594       9.082       8.088       6.348       3.649      8.7236E-03
   7    10.00       9.979       9.937       9.834       9.594       9.082       8.088       6.348       3.649      8.7236E-03
   8    10.00       9.979       9.937       9.834       9.594       9.082       8.088       6.348       3.649      8.7236E-03
   9    10.00       9.979       9.937       9.834       9.594       9.082       8.088       6.348       3.649      8.7236E-03
  10    10.00       9.979       9.937       9.834       9.594       9.082       8.088       6.348       3.649      8.7236E-03
1
              HEAD IN LAYER   5 AT END OF TIME STEP  50 IN STRESS PERIOD    2
  ---------------------------------------------------------------------------

            1           2           3           4           5           6           7           8           9          10
 ........................................................................................................................
   1    10.00       9.979       9.936       9.832       9.591       9.076       8.077       6.335       3.636      8.7078E-03
   2    10.00       9.979       9.936       9.832       9.591       9.076       8.077       6.335       3.636      8.7078E-03
   3    10.00       9.979       9.936       9.832       9.591       9.076       8.077       6.335       3.636      8.7078E-03
   4    10.00       9.979       9.936       9.832       9.591       9.076       8.077       6.335       3.636      8.7078E-03
   5    10.00       9.979       9.936       9.832       9.591       9.076       8.077       6.335       3.636      8.7078E-03
   6    10.00       9.979       9.936       9.832       9.591       9.076       8.077       6.335       3.636      8.7078E-03
   7    10.00       9.979       9.936       9.832       9.591       9.076       8.077       6.335       3.636      8.7078E-03
   8    10.00       9.979       9.936       9.832       9.591       9.076       8.077       6.335       3.636      8.7078E-03
   9    10.00       9.979       9.936       9.832       9.591       9.076       8.077       6.335       3.636      8.7078E-03
  10    10.00       9.979       9.936       9.832       9.591       9.076       8.077       6.335       3.636      8.7078E-03

 HEAD WILL BE SAVED ON UNIT   51 AT END OF TIME STEP   50, STRESS PERIOD    2

 DRAWDOWN WILL BE SAVED ON UNIT   52 AT END OF TIME STEP   50, STRESS PERIOD    2
1
  VOLUMETRIC BUDGET FOR ENTIRE MODEL AT END OF TIME STEP   50, STRESS PERIOD   2
  ------------------------------------------------------------------------------

     CUMULATIVE VOLUMES      L**3       RATES FOR THIS TIME STEP      L**3/T
     ------------------                 ------------------------

           IN:                                      IN:
           ---                                      ---
             STORAGE =      241874.1562               STORAGE =        1856.8190
       CONSTANT HEAD =           0.0000         CONSTANT HEAD =           0.0000
               WELLS =           0.0000                 WELLS =           0.0000
     HEAD DEP BOUNDS =         135.0162       HEAD DEP BOUNDS =          11.7085

            TOTAL IN =      242009.1719              TOTAL IN =        1868.5275

          OUT:                                     OUT:
          ----                                     ----
             STORAGE =           0.0000               STORAGE =           0.0000
       CONSTANT HEAD =           0.0000         CONSTANT HEAD =           0.0000
               WELLS =           0.0000                 WELLS =           0.0000
     HEAD DEP BOUNDS =      242009.6406       HEAD DEP BOUNDS =        1868.5470

           TOTAL OUT =      242009.6406             TOTAL OUT =        1868.5470

            IN - OUT =          -0.4688              IN - OUT =      -1.9531E-02

 PERCENT DISCREPANCY =          -0.00     PERCENT DISCREPANCY =          -0.00






         TIME SUMMARY AT END OF TIME STEP   50 IN STRESS PERIOD    2
                    SECONDS     MINUTES      HOURS       DAYS        YEARS
                    -----------------------------------------------------------
   TIME STEP LENGTH  86400.      1440.0      24.000      1.0000     2.73785E-03
 STRESS PERIOD TIME 4.32000E+06  72000.      1200.0      50.000     0.13689    
         TOTAL TIME 4.40640E+06  73440.      1224.0      51.000     0.13963    
1
 
 SOLVING FOR HEAD 

 OUTPUT CONTROL FOR STRESS PERIOD    2   TIME STEP   51
    SAVE HEAD FOR ALL LAYERS
    SAVE DRAWDOWN FOR ALL LAYERS
    SAVE BUDGET
    PRINT HEAD FOR ALL LAYERS
    PRINT BUDGET
 UBDSV1 SAVING "         STORAGE" ON UNIT  53 AT TIME STEP 51, STRESS PERIOD   2
 UBDSV2 SAVING "   CONSTANT HEAD" ON UNIT  53 AT TIME STEP 51, STRESS PERIOD   2
 UBDSV1 SAVING "FLOW RIGHT FACE " ON UNIT  53 AT TIME STEP 51, STRESS PERIOD   2
 UBDSV1 SAVING "FLOW FRONT FACE " ON UNIT  53 AT TIME STEP 51, STRESS PERIOD   2
 UBDSV1 SAVING "FLOW LOWER FACE " ON UNIT  53 AT TIME STEP 51, STRESS PERIOD   2
1
              HEAD IN LAYER   1 AT END OF TIME STEP  51 IN STRESS PERIOD    2
  ---------------------------------------------------------------------------

            1           2           3           4           5           6           7           8           9          10
 ........................................................................................................................
   1    10.00       9.981       9.941       9.842       9.612       9.114       8.137       6.413       3.717      3.4370E-03
   2    10.00       9.981       9.941       9.842       9.612       9.114       8.137       6.413       3.717      3.4370E-03
   3    10.00       9.981       9.941       9.842       9.612       9.114       8.137       6.413       3.717      3.4370E-03
   4    10.00       9.981       9.941       9.842       9.612       9.114       8.137       6.413       3.717      3.4370E-03
   5    10.00       9.981       9.941       9.842       9.612       9.114       8.137       6.413       3.717      3.4370E-03
   6    10.00       9.981       9.941       9.842       9.612       9.114       8.137       6.413       3.717      3.4370E-03
   7    10.00       9.981       9.941       9.842       9.612       9.114       8.137       6.413       3.717      3.4370E-03
   8    10.00       9.981       9.941       9.842       9.612       9.114       8.137       6.413       3.717      3.4370E-03
   9    10.00       9.981       9.941       9.842       9.612       9.114       8.137       6.413       3.717      3.4370E-03
  10    10.00       9.981       9.941       9.842       9.612       9.114       8.137       6.413       3.717      3.4370E-03
1
              HEAD IN LAYER   2 AT END OF TIME STEP  51 IN STRESS PERIOD    2
  ---------------------------------------------------------------------------

            1           2           3           4           5           6           7           8           9          10
 ........................................................................................................................
   1    10.00       9.980       9.937       9.835       9.597       9.089       8.100       6.369       3.679      7.7281E-03
   2    10.00       9.980       9.937       9.835       9.597       9.089       8.100       6.369       3.679      7.7281E-03
   3    10.00       9.980       9.937       9.835       9.597       9.089       8.100       6.369       3.679      7.7281E-03
   4    10.00       9.980       9.937       9.835       9.597       9.089       8.100       6.369       3.679      7.7281E-03
   5    10.00       9.980       9.937       9.835       9.597       9.089       8.100       6.369       3.679      7.7281E-03
   6    10.00       9.980       9.937       9.835       9.597       9.089       8.100       6.369       3.679      7.7281E-03
   7    10.00       9.980       9.937       9.835       9.597       9.089       8.100       6.369       3.679      7.7281E-03
   8    10.00       9.980       9.937       9.835       9.597       9.089       8.100       6.369       3.679      7.7281E-03
   9    10.00       9.980       9.937       9.835       9.597       9.089       8.100       6.369       3.679      7.7281E-03
  10    10.00       9.980       9.937       9.835       9.597       9.089       8.100       6.369       3.679      7.7281E-03
1
              HEAD IN LAYER   3 AT END OF TIME STEP  51 IN STRESS PERIOD    2
  ---------------------------------------------------------------------------

            1           2           3           4           5           6           7           8           9          10
 ........................................................................................................................
   1    10.00       9.979       9.935       9.829       9.586       9.069       8.069       6.330       3.641      8.5842E-03
   2    10.00       9.979       9.935       9.829       9.586       9.069       8.069       6.330       3.641      8.5842E-03
   3    10.00       9.979       9.935       9.829       9.586       9.069       8.069       6.330       3.641      8.5842E-03
   4    10.00       9.979       9.935       9.829       9.586       9.069       8.069       6.330       3.641      8.5842E-03
   5    10.00       9.979       9.935       9.829       9.586       9.069       8.069       6.330       3.641      8.5842E-03
   6    10.00       9.979       9.935       9.829       9.586       9.069       8.069       6.330       3.641      8.5842E-03
   7    10.00       9.979       9.935       9.829       9.586       9.069       8.069       6.330       3.641      8.5842E-03
   8    10.00       9.979       9.935       9.829       9.586       9.069       8.069       6.330       3.641      8.5842E-03
   9    10.00       9.979       9.935       9.829       9.586       9.069       8.069       6.330       3.641      8.5842E-03
  10    10.00       9.979       9.935       9.829       9.586       9.069       8.069       6.330       3.641      8.5842E-03
1
              HEAD IN LAYER   4 AT END OF TIME STEP  51 IN STRESS PERIOD    2
  ---------------------------------------------------------------------------

            1           2           3           4           5           6           7           8           9          10
 ........................................................................................................................
   1    10.00       9.978       9.933       9.825       9.578       9.056       8.049       6.304       3.615      8.6436E-03
   2    10.00       9.978       9.933       9.825       9.578       9.056       8.049       6.304       3.615      8.6436E-03
   3    10.00       9.978       9.933       9.825       9.578       9.056       8.049       6.304       3.615      8.6436E-03
   4    10.00       9.978       9.933       9.825       9.578       9.056       8.049       6.304       3.615      8.6436E-03
   5    10.00       9.978       9.933       9.825       9.578       9.056       8.049       6.304       3.615      8.6436E-03
   6    10.00       9.978       9.933       9.825       9.578       9.056       8.049       6.304       3.615      8.6436E-03
   7    10.00       9.978       9.933       9.825       9.578       9.056       8.049       6.304       3.615      8.6436E-03
   8    10.00       9.978       9.933       9.825       9.578       9.056       8.049       6.304       3.615      8.6436E-03
   9    10.00       9.978       9.933       9.825       9.578       9.056       8.049       6.304       3.615      8.6436E-03
  10    10.00       9.978       9.933       9.825       9.578       9.056       8.049       6.304       3.615      8.6436E-03
1
              HEAD IN LAYER   5 AT END OF TIME STEP  51 IN STRESS PERIOD    2
  ---------------------------------------------------------------------------

            1           2           3           4           5           6           7           8           9          10
 ........................................................................................................................
   1    10.00       9.978       9.932       9.824       9.575       9.049       8.039       6.291       3.603      8.6285E-03
   2    10.00       9.978       9.932       9.824       9.575       9.049       8.039       6.291       3.603      8.6285E-03
   3    10.00       9.978       9.932       9.824       9.575       9.049       8.039       6.291       3.603      8.6285E-03
   4    10.00       9.978       9.932       9.824       9.575       9.049       8.039       6.291       3.603      8.6285E-03
   5    10.00       9.978       9.932       9.824       9.575       9.049       8.039       6.291       3.603      8.6285E-03
   6    10.00       9.978       9.932       9.824       9.575       9.049       8.039       6.291       3.603      8.6285E-03
   7    10.00       9.978       9.932       9.824       9.575       9.049       8.039       6.291       3.603      8.6285E-03
   8    10.00       9.978       9.932       9.824       9.575       9.049       8.039       6.291       3.603      8.6285E-03
   9    10.00       9.978       9.932       9.824       9.575       9.049       8.039       6.291       3.603      8.6285E-03
  10    10.00       9.978       9.932       9.824       9.575       9.049       8.039       6.291       3.603      8.6285E-03

 HEAD WILL BE SAVED ON UNIT   51 AT END OF TIME STEP   51, STRESS PERIOD    2

 DRAWDOWN WILL BE SAVED ON UNIT   52 AT END OF TIME STEP   51, STRESS PERIOD    2
1
  VOLUMETRIC BUDGET FOR ENTIRE MODEL AT END OF TIME STEP   51, STRESS PERIOD   2
  ------------------------------------------------------------------------------

     CUMULATIVE VOLUMES      L**3       RATES FOR THIS TIME STEP      L**3/T
     ------------------                 ------------------------

           IN:                                      IN:
           ---                                      ---
             STORAGE =      243712.6562               STORAGE =        1838.4938
       CONSTANT HEAD =           0.0000         CONSTANT HEAD =           0.0000
               WELLS =           0.0000                 WELLS =           0.0000
     HEAD DEP BOUNDS =         147.5119       HEAD DEP BOUNDS =          12.4957

            TOTAL IN =      243860.1719              TOTAL IN =        1850.9895

          OUT:                                     OUT:
          ----                                     ----
             STORAGE =           0.0000               STORAGE =           0.0000
       CONSTANT HEAD =           0.0000         CONSTANT HEAD =           0.0000
               WELLS =           0.0000                 WELLS =           0.0000
     HEAD DEP BOUNDS =      243860.7031       HEAD DEP BOUNDS =        1851.0656

           TOTAL OUT =      243860.7031             TOTAL OUT =        1851.0656

            IN - OUT =          -0.5312              IN - OUT =      -7.6050E-02

 PERCENT DISCREPANCY =          -0.00     PERCENT DISCREPANCY =          -0.00






         TIME SUMMARY AT END OF TIME STEP   51 IN STRESS PERIOD    2
                    SECONDS     MINUTES      HOURS       DAYS        YEARS
                    -----------------------------------------------------------
   TIME STEP LENGTH  86400.      1440.0      24.000      1.0000     2.73785E-03
 STRESS PERIOD TIME 4.40640E+06  73440.      1224.0      51.000     0.13963    
         TOTAL TIME 4.49280E+06  74880.      1248.0      52.000     0.14237    
1
 
 SOLVING FOR HEAD 

 OUTPUT CONTROL FOR STRESS PERIOD    2   TIME STEP   52
    SAVE HEAD FOR ALL LAYERS
    SAVE DRAWDOWN FOR ALL LAYERS
    SAVE BUDGET
    PRINT HEAD FOR ALL LAYERS
    PRINT BUDGET
 UBDSV1 SAVING "         STORAGE" ON UNIT  53 AT TIME STEP 52, STRESS PERIOD   2
 UBDSV2 SAVING "   CONSTANT HEAD" ON UNIT  53 AT TIME STEP 52, STRESS PERIOD   2
 UBDSV1 SAVING "FLOW RIGHT FACE " ON UNIT  53 AT TIME STEP 52, STRESS PERIOD   2
 UBDSV1 SAVING "FLOW FRONT FACE " ON UNIT  53 AT TIME STEP 52, STRESS PERIOD   2
 UBDSV1 SAVING "FLOW LOWER FACE " ON UNIT  53 AT TIME STEP 52, STRESS PERIOD   2
1
              HEAD IN LAYER   1 AT END OF TIME STEP  52 IN STRESS PERIOD    2
  ---------------------------------------------------------------------------

            1           2           3           4           5           6           7           8           9          10
 ........................................................................................................................
   1    10.00       9.980       9.937       9.834       9.596       9.087       8.098       6.368       3.682      3.4019E-03
   2    10.00       9.980       9.937       9.834       9.596       9.087       8.098       6.368       3.682      3.4019E-03
   3    10.00       9.980       9.937       9.834       9.596       9.087       8.098       6.368       3.682      3.4019E-03
   4    10.00       9.980       9.937       9.834       9.596       9.087       8.098       6.368       3.682      3.4019E-03
   5    10.00       9.980       9.937       9.834       9.596       9.087       8.098       6.368       3.682      3.4019E-03
   6    10.00       9.980       9.937       9.834       9.596       9.087       8.098       6.368       3.682      3.4019E-03
   7    10.00       9.980       9.937       9.834       9.596       9.087       8.098       6.368       3.682      3.4019E-03
   8    10.00       9.980       9.937       9.834       9.596       9.087       8.098       6.368       3.682      3.4019E-03
   9    10.00       9.980       9.937       9.834       9.596       9.087       8.098       6.368       3.682      3.4019E-03
  10    10.00       9.980       9.937       9.834       9.596       9.087       8.098       6.368       3.682      3.4019E-03
1
              HEAD IN LAYER   2 AT END OF TIME STEP  52 IN STRESS PERIOD    2
  ---------------------------------------------------------------------------

            1           2           3           4           5           6           7           8           9          10
 ........................................................................................................................
   1    10.00       9.978       9.934       9.827       9.581       9.062       8.061       6.325       3.645      7.6561E-03
   2    10.00       9.978       9.934       9.827       9.581       9.062       8.061       6.325       3.645      7.6561E-03
   3    10.00       9.978       9.934       9.827       9.581       9.062       8.061       6.325       3.645      7.6561E-03
   4    10.00       9.978       9.934       9.827       9.581       9.062       8.061       6.325       3.645      7.6561E-03
   5    10.00       9.978       9.934       9.827       9.581       9.062       8.061       6.325       3.645      7.6561E-03
   6    10.00       9.978       9.934       9.827       9.581       9.062       8.061       6.325       3.645      7.6561E-03
   7    10.00       9.978       9.934       9.827       9.581       9.062       8.061       6.325       3.645      7.6561E-03
   8    10.00       9.978       9.934       9.827       9.581       9.062       8.061       6.325       3.645      7.6561E-03
   9    10.00       9.978       9.934       9.827       9.581       9.062       8.061       6.325       3.645      7.6561E-03
  10    10.00       9.978       9.934       9.827       9.581       9.062       8.061       6.325       3.645      7.6561E-03
1
              HEAD IN LAYER   3 AT END OF TIME STEP  52 IN STRESS PERIOD    2
  ---------------------------------------------------------------------------

            1           2           3           4           5           6           7           8           9          10
 ........................................................................................................................
   1    10.00       9.977       9.931       9.821       9.570       9.042       8.031       6.286       3.607      8.5059E-03
   2    10.00       9.977       9.931       9.821       9.570       9.042       8.031       6.286       3.607      8.5059E-03
   3    10.00       9.977       9.931       9.821       9.570       9.042       8.031       6.286       3.607      8.5059E-03
   4    10.00       9.977       9.931       9.821       9.570       9.042       8.031       6.286       3.607      8.5059E-03
   5    10.00       9.977       9.931       9.821       9.570       9.042       8.031       6.286       3.607      8.5059E-03
   6    10.00       9.977       9.931       9.821       9.570       9.042       8.031       6.286       3.607      8.5059E-03
   7    10.00       9.977       9.931       9.821       9.570       9.042       8.031       6.286       3.607      8.5059E-03
   8    10.00       9.977       9.931       9.821       9.570       9.042       8.031       6.286       3.607      8.5059E-03
   9    10.00       9.977       9.931       9.821       9.570       9.042       8.031       6.286       3.607      8.5059E-03
  10    10.00       9.977       9.931       9.821       9.570       9.042       8.031       6.286       3.607      8.5059E-03
1
              HEAD IN LAYER   4 AT END OF TIME STEP  52 IN STRESS PERIOD    2
  ---------------------------------------------------------------------------

            1           2           3           4           5           6           7           8           9          10
 ........................................................................................................................
   1    10.00       9.977       9.929       9.817       9.563       9.029       8.011       6.261       3.583      8.5658E-03
   2    10.00       9.977       9.929       9.817       9.563       9.029       8.011       6.261       3.583      8.5658E-03
   3    10.00       9.977       9.929       9.817       9.563       9.029       8.011       6.261       3.583      8.5658E-03
   4    10.00       9.977       9.929       9.817       9.563       9.029       8.011       6.261       3.583      8.5658E-03
   5    10.00       9.977       9.929       9.817       9.563       9.029       8.011       6.261       3.583      8.5658E-03
   6    10.00       9.977       9.929       9.817       9.563       9.029       8.011       6.261       3.583      8.5658E-03
   7    10.00       9.977       9.929       9.817       9.563       9.029       8.011       6.261       3.583      8.5658E-03
   8    10.00       9.977       9.929       9.817       9.563       9.029       8.011       6.261       3.583      8.5658E-03
   9    10.00       9.977       9.929       9.817       9.563       9.029       8.011       6.261       3.583      8.5658E-03
  10    10.00       9.977       9.929       9.817       9.563       9.029       8.011       6.261       3.583      8.5658E-03
1
              HEAD IN LAYER   5 AT END OF TIME STEP  52 IN STRESS PERIOD    2
  ---------------------------------------------------------------------------

            1           2           3           4           5           6           7           8           9          10
 ........................................................................................................................
   1    10.00       9.976       9.928       9.815       9.559       9.023       8.001       6.248       3.570      8.5512E-03
   2    10.00       9.976       9.928       9.815       9.559       9.023       8.001       6.248       3.570      8.5512E-03
   3    10.00       9.976       9.928       9.815       9.559       9.023       8.001       6.248       3.570      8.5512E-03
   4    10.00       9.976       9.928       9.815       9.559       9.023       8.001       6.248       3.570      8.5512E-03
   5    10.00       9.976       9.928       9.815       9.559       9.023       8.001       6.248       3.570      8.5512E-03
   6    10.00       9.976       9.928       9.815       9.559       9.023       8.001       6.248       3.570      8.5512E-03
   7    10.00       9.976       9.928       9.815       9.559       9.023       8.001       6.248       3.570      8.5512E-03
   8    10.00       9.976       9.928       9.815       9.559       9.023       8.001       6.248       3.570      8.5512E-03
   9    10.00       9.976       9.928       9.815       9.559       9.023       8.001       6.248       3.570      8.5512E-03
  10    10.00       9.976       9.928       9.815       9.559       9.023       8.001       6.248       3.570      8.5512E-03

 HEAD WILL BE SAVED ON UNIT   51 AT END OF TIME STEP   52, STRESS PERIOD    2

 DRAWDOWN WILL BE SAVED ON UNIT   52 AT END OF TIME STEP   52, STRESS PERIOD    2
1
  VOLUMETRIC BUDGET FOR ENTIRE MODEL AT END OF TIME STEP   52, STRESS PERIOD   2
  ------------------------------------------------------------------------------

     CUMULATIVE VOLUMES      L**3       RATES FOR THIS TIME STEP      L**3/T
     ------------------                 ------------------------

           IN:                                      IN:
           ---                                      ---
             STORAGE =      245533.3281               STORAGE =        1820.6683
       CONSTANT HEAD =           0.0000         CONSTANT HEAD =           0.0000
               WELLS =           0.0000                 WELLS =           0.0000
     HEAD DEP BOUNDS =         160.8939       HEAD DEP BOUNDS =          13.3821

            TOTAL IN =      245694.2188              TOTAL IN =        1834.0504

          OUT:                                     OUT:
          ----                                     ----
             STORAGE =           0.0000               STORAGE =           0.0000
       CONSTANT HEAD =           0.0000         CONSTANT HEAD =           0.0000
               WELLS =           0.0000                 WELLS =           0.0000
     HEAD DEP BOUNDS =      245694.7500       HEAD DEP BOUNDS =        1834.0475

           TOTAL OUT =      245694.7500             TOTAL OUT =        1834.0475

            IN - OUT =          -0.5312              IN - OUT =       2.9297E-03

 PERCENT DISCREPANCY =          -0.00     PERCENT DISCREPANCY =           0.00






         TIME SUMMARY AT END OF TIME STEP   52 IN STRESS PERIOD    2
                    SECONDS     MINUTES      HOURS       DAYS        YEARS
                    -----------------------------------------------------------
   TIME STEP LENGTH  86400.      1440.0      24.000      1.0000     2.73785E-03
 STRESS PERIOD TIME 4.49280E+06  74880.      1248.0      52.000     0.14237    
         TOTAL TIME 4.57920E+06  76320.      1272.0      53.000     0.14511    
1
 
 SOLVING FOR HEAD 

 OUTPUT CONTROL FOR STRESS PERIOD    2   TIME STEP   53
    SAVE HEAD FOR ALL LAYERS
    SAVE DRAWDOWN FOR ALL LAYERS
    SAVE BUDGET
    PRINT HEAD FOR ALL LAYERS
    PRINT BUDGET
 UBDSV1 SAVING "         STORAGE" ON UNIT  53 AT TIME STEP 53, STRESS PERIOD   2
 UBDSV2 SAVING "   CONSTANT HEAD" ON UNIT  53 AT TIME STEP 53, STRESS PERIOD   2
 UBDSV1 SAVING "FLOW RIGHT FACE " ON UNIT  53 AT TIME STEP 53, STRESS PERIOD   2
 UBDSV1 SAVING "FLOW FRONT FACE " ON UNIT  53 AT TIME STEP 53, STRESS PERIOD   2
 UBDSV1 SAVING "FLOW LOWER FACE " ON UNIT  53 AT TIME STEP 53, STRESS PERIOD   2
1
              HEAD IN LAYER   1 AT END OF TIME STEP  53 IN STRESS PERIOD    2
  ---------------------------------------------------------------------------

            1           2           3           4           5           6           7           8           9          10
 ........................................................................................................................
   1    10.00       9.978       9.933       9.826       9.581       9.061       8.060       6.324       3.648      3.3677E-03
   2    10.00       9.978       9.933       9.826       9.581       9.061       8.060       6.324       3.648      3.3677E-03
   3    10.00       9.978       9.933       9.826       9.581       9.061       8.060       6.324       3.648      3.3677E-03
   4    10.00       9.978       9.933       9.826       9.581       9.061       8.060       6.324       3.648      3.3677E-03
   5    10.00       9.978       9.933       9.826       9.581       9.061       8.060       6.324       3.648      3.3677E-03
   6    10.00       9.978       9.933       9.826       9.581       9.061       8.060       6.324       3.648      3.3677E-03
   7    10.00       9.978       9.933       9.826       9.581       9.061       8.060       6.324       3.648      3.3677E-03
   8    10.00       9.978       9.933       9.826       9.581       9.061       8.060       6.324       3.648      3.3677E-03
   9    10.00       9.978       9.933       9.826       9.581       9.061       8.060       6.324       3.648      3.3677E-03
  10    10.00       9.978       9.933       9.826       9.581       9.061       8.060       6.324       3.648      3.3677E-03
1
              HEAD IN LAYER   2 AT END OF TIME STEP  53 IN STRESS PERIOD    2
  ---------------------------------------------------------------------------

            1           2           3           4           5           6           7           8           9          10
 ........................................................................................................................
   1    10.00       9.977       9.930       9.818       9.566       9.035       8.023       6.281       3.612      7.5859E-03
   2    10.00       9.977       9.930       9.818       9.566       9.035       8.023       6.281       3.612      7.5859E-03
   3    10.00       9.977       9.930       9.818       9.566       9.035       8.023       6.281       3.612      7.5859E-03
   4    10.00       9.977       9.930       9.818       9.566       9.035       8.023       6.281       3.612      7.5859E-03
   5    10.00       9.977       9.930       9.818       9.566       9.035       8.023       6.281       3.612      7.5859E-03
   6    10.00       9.977       9.930       9.818       9.566       9.035       8.023       6.281       3.612      7.5859E-03
   7    10.00       9.977       9.930       9.818       9.566       9.035       8.023       6.281       3.612      7.5859E-03
   8    10.00       9.977       9.930       9.818       9.566       9.035       8.023       6.281       3.612      7.5859E-03
   9    10.00       9.977       9.930       9.818       9.566       9.035       8.023       6.281       3.612      7.5859E-03
  10    10.00       9.977       9.930       9.818       9.566       9.035       8.023       6.281       3.612      7.5859E-03
1
              HEAD IN LAYER   3 AT END OF TIME STEP  53 IN STRESS PERIOD    2
  ---------------------------------------------------------------------------

            1           2           3           4           5           6           7           8           9          10
 ........................................................................................................................
   1    10.00       9.976       9.927       9.813       9.554       9.016       7.993       6.244       3.575      8.4298E-03
   2    10.00       9.976       9.927       9.813       9.554       9.016       7.993       6.244       3.575      8.4298E-03
   3    10.00       9.976       9.927       9.813       9.554       9.016       7.993       6.244       3.575      8.4298E-03
   4    10.00       9.976       9.927       9.813       9.554       9.016       7.993       6.244       3.575      8.4298E-03
   5    10.00       9.976       9.927       9.813       9.554       9.016       7.993       6.244       3.575      8.4298E-03
   6    10.00       9.976       9.927       9.813       9.554       9.016       7.993       6.244       3.575      8.4298E-03
   7    10.00       9.976       9.927       9.813       9.554       9.016       7.993       6.244       3.575      8.4298E-03
   8    10.00       9.976       9.927       9.813       9.554       9.016       7.993       6.244       3.575      8.4298E-03
   9    10.00       9.976       9.927       9.813       9.554       9.016       7.993       6.244       3.575      8.4298E-03
  10    10.00       9.976       9.927       9.813       9.554       9.016       7.993       6.244       3.575      8.4298E-03
1
              HEAD IN LAYER   4 AT END OF TIME STEP  53 IN STRESS PERIOD    2
  ---------------------------------------------------------------------------

            1           2           3           4           5           6           7           8           9          10
 ........................................................................................................................
   1    10.00       9.975       9.925       9.809       9.546       9.002       7.974       6.219       3.551      8.4900E-03
   2    10.00       9.975       9.925       9.809       9.546       9.002       7.974       6.219       3.551      8.4900E-03
   3    10.00       9.975       9.925       9.809       9.546       9.002       7.974       6.219       3.551      8.4900E-03
   4    10.00       9.975       9.925       9.809       9.546       9.002       7.974       6.219       3.551      8.4900E-03
   5    10.00       9.975       9.925       9.809       9.546       9.002       7.974       6.219       3.551      8.4900E-03
   6    10.00       9.975       9.925       9.809       9.546       9.002       7.974       6.219       3.551      8.4900E-03
   7    10.00       9.975       9.925       9.809       9.546       9.002       7.974       6.219       3.551      8.4900E-03
   8    10.00       9.975       9.925       9.809       9.546       9.002       7.974       6.219       3.551      8.4900E-03
   9    10.00       9.975       9.925       9.809       9.546       9.002       7.974       6.219       3.551      8.4900E-03
  10    10.00       9.975       9.925       9.809       9.546       9.002       7.974       6.219       3.551      8.4900E-03
1
              HEAD IN LAYER   5 AT END OF TIME STEP  53 IN STRESS PERIOD    2
  ---------------------------------------------------------------------------

            1           2           3           4           5           6           7           8           9          10
 ........................................................................................................................
   1   10.000       9.975       9.924       9.807       9.543       8.996       7.964       6.206       3.539      8.4759E-03
   2   10.000       9.975       9.924       9.807       9.543       8.996       7.964       6.206       3.539      8.4759E-03
   3   10.000       9.975       9.924       9.807       9.543       8.996       7.964       6.206       3.539      8.4759E-03
   4   10.000       9.975       9.924       9.807       9.543       8.996       7.964       6.206       3.539      8.4759E-03
   5   10.000       9.975       9.924       9.807       9.543       8.996       7.964       6.206       3.539      8.4759E-03
   6   10.000       9.975       9.924       9.807       9.543       8.996       7.964       6.206       3.539      8.4759E-03
   7   10.000       9.975       9.924       9.807       9.543       8.996       7.964       6.206       3.539      8.4759E-03
   8   10.000       9.975       9.924       9.807       9.543       8.996       7.964       6.206       3.539      8.4759E-03
   9   10.000       9.975       9.924       9.807       9.543       8.996       7.964       6.206       3.539      8.4759E-03
  10   10.000       9.975       9.924       9.807       9.543       8.996       7.964       6.206       3.539      8.4759E-03

 HEAD WILL BE SAVED ON UNIT   51 AT END OF TIME STEP   53, STRESS PERIOD    2

 DRAWDOWN WILL BE SAVED ON UNIT   52 AT END OF TIME STEP   53, STRESS PERIOD    2
1
  VOLUMETRIC BUDGET FOR ENTIRE MODEL AT END OF TIME STEP   53, STRESS PERIOD   2
  ------------------------------------------------------------------------------

     CUMULATIVE VOLUMES      L**3       RATES FOR THIS TIME STEP      L**3/T
     ------------------                 ------------------------

           IN:                                      IN:
           ---                                      ---
             STORAGE =      247336.5312               STORAGE =        1803.2023
       CONSTANT HEAD =           0.0000         CONSTANT HEAD =           0.0000
               WELLS =           0.0000                 WELLS =           0.0000
     HEAD DEP BOUNDS =         175.1271       HEAD DEP BOUNDS =          14.2332

            TOTAL IN =      247511.6562              TOTAL IN =        1817.4354

          OUT:                                     OUT:
          ----                                     ----
             STORAGE =           0.0000               STORAGE =           0.0000
       CONSTANT HEAD =           0.0000         CONSTANT HEAD =           0.0000
               WELLS =           0.0000                 WELLS =           0.0000
     HEAD DEP BOUNDS =      247512.2188       HEAD DEP BOUNDS =        1817.4650

           TOTAL OUT =      247512.2188             TOTAL OUT =        1817.4650

            IN - OUT =          -0.5625              IN - OUT =      -2.9541E-02

 PERCENT DISCREPANCY =          -0.00     PERCENT DISCREPANCY =          -0.00






         TIME SUMMARY AT END OF TIME STEP   53 IN STRESS PERIOD    2
                    SECONDS     MINUTES      HOURS       DAYS        YEARS
                    -----------------------------------------------------------
   TIME STEP LENGTH  86400.      1440.0      24.000      1.0000     2.73785E-03
 STRESS PERIOD TIME 4.57920E+06  76320.      1272.0      53.000     0.14511    
         TOTAL TIME 4.66560E+06  77760.      1296.0      54.000     0.14784    
1
 
 SOLVING FOR HEAD 

 OUTPUT CONTROL FOR STRESS PERIOD    2   TIME STEP   54
    SAVE HEAD FOR ALL LAYERS
    SAVE DRAWDOWN FOR ALL LAYERS
    SAVE BUDGET
    PRINT HEAD FOR ALL LAYERS
    PRINT BUDGET
 UBDSV1 SAVING "         STORAGE" ON UNIT  53 AT TIME STEP 54, STRESS PERIOD   2
 UBDSV2 SAVING "   CONSTANT HEAD" ON UNIT  53 AT TIME STEP 54, STRESS PERIOD   2
 UBDSV1 SAVING "FLOW RIGHT FACE " ON UNIT  53 AT TIME STEP 54, STRESS PERIOD   2
 UBDSV1 SAVING "FLOW FRONT FACE " ON UNIT  53 AT TIME STEP 54, STRESS PERIOD   2
 UBDSV1 SAVING "FLOW LOWER FACE " ON UNIT  53 AT TIME STEP 54, STRESS PERIOD   2
1
              HEAD IN LAYER   1 AT END OF TIME STEP  54 IN STRESS PERIOD    2
  ---------------------------------------------------------------------------

            1           2           3           4           5           6           7           8           9          10
 ........................................................................................................................
   1    10.00       9.977       9.930       9.818       9.565       9.034       8.022       6.281       3.615      3.3345E-03
   2    10.00       9.977       9.930       9.818       9.565       9.034       8.022       6.281       3.615      3.3345E-03
   3    10.00       9.977       9.930       9.818       9.565       9.034       8.022       6.281       3.615      3.3345E-03
   4    10.00       9.977       9.930       9.818       9.565       9.034       8.022       6.281       3.615      3.3345E-03
   5    10.00       9.977       9.930       9.818       9.565       9.034       8.022       6.281       3.615      3.3345E-03
   6    10.00       9.977       9.930       9.818       9.565       9.034       8.022       6.281       3.615      3.3345E-03
   7    10.00       9.977       9.930       9.818       9.565       9.034       8.022       6.281       3.615      3.3345E-03
   8    10.00       9.977       9.930       9.818       9.565       9.034       8.022       6.281       3.615      3.3345E-03
   9    10.00       9.977       9.930       9.818       9.565       9.034       8.022       6.281       3.615      3.3345E-03
  10    10.00       9.977       9.930       9.818       9.565       9.034       8.022       6.281       3.615      3.3345E-03
1
              HEAD IN LAYER   2 AT END OF TIME STEP  54 IN STRESS PERIOD    2
  ---------------------------------------------------------------------------

            1           2           3           4           5           6           7           8           9          10
 ........................................................................................................................
   1    10.00       9.975       9.926       9.810       9.550       9.009       7.986       6.239       3.579      7.5177E-03
   2    10.00       9.975       9.926       9.810       9.550       9.009       7.986       6.239       3.579      7.5177E-03
   3    10.00       9.975       9.926       9.810       9.550       9.009       7.986       6.239       3.579      7.5177E-03
   4    10.00       9.975       9.926       9.810       9.550       9.009       7.986       6.239       3.579      7.5177E-03
   5    10.00       9.975       9.926       9.810       9.550       9.009       7.986       6.239       3.579      7.5177E-03
   6    10.00       9.975       9.926       9.810       9.550       9.009       7.986       6.239       3.579      7.5177E-03
   7    10.00       9.975       9.926       9.810       9.550       9.009       7.986       6.239       3.579      7.5177E-03
   8    10.00       9.975       9.926       9.810       9.550       9.009       7.986       6.239       3.579      7.5177E-03
   9    10.00       9.975       9.926       9.810       9.550       9.009       7.986       6.239       3.579      7.5177E-03
  10    10.00       9.975       9.926       9.810       9.550       9.009       7.986       6.239       3.579      7.5177E-03
1
              HEAD IN LAYER   3 AT END OF TIME STEP  54 IN STRESS PERIOD    2
  ---------------------------------------------------------------------------

            1           2           3           4           5           6           7           8           9          10
 ........................................................................................................................
   1   10.000       9.974       9.923       9.804       9.538       8.989       7.956       6.202       3.544      8.3555E-03
   2   10.000       9.974       9.923       9.804       9.538       8.989       7.956       6.202       3.544      8.3555E-03
   3   10.000       9.974       9.923       9.804       9.538       8.989       7.956       6.202       3.544      8.3555E-03
   4   10.000       9.974       9.923       9.804       9.538       8.989       7.956       6.202       3.544      8.3555E-03
   5   10.000       9.974       9.923       9.804       9.538       8.989       7.956       6.202       3.544      8.3555E-03
   6   10.000       9.974       9.923       9.804       9.538       8.989       7.956       6.202       3.544      8.3555E-03
   7   10.000       9.974       9.923       9.804       9.538       8.989       7.956       6.202       3.544      8.3555E-03
   8   10.000       9.974       9.923       9.804       9.538       8.989       7.956       6.202       3.544      8.3555E-03
   9   10.000       9.974       9.923       9.804       9.538       8.989       7.956       6.202       3.544      8.3555E-03
  10   10.000       9.974       9.923       9.804       9.538       8.989       7.956       6.202       3.544      8.3555E-03
1
              HEAD IN LAYER   4 AT END OF TIME STEP  54 IN STRESS PERIOD    2
  ---------------------------------------------------------------------------

            1           2           3           4           5           6           7           8           9          10
 ........................................................................................................................
   1   10.000       9.974       9.921       9.800       9.530       8.976       7.936       6.177       3.520      8.4160E-03
   2   10.000       9.974       9.921       9.800       9.530       8.976       7.936       6.177       3.520      8.4160E-03
   3   10.000       9.974       9.921       9.800       9.530       8.976       7.936       6.177       3.520      8.4160E-03
   4   10.000       9.974       9.921       9.800       9.530       8.976       7.936       6.177       3.520      8.4160E-03
   5   10.000       9.974       9.921       9.800       9.530       8.976       7.936       6.177       3.520      8.4160E-03
   6   10.000       9.974       9.921       9.800       9.530       8.976       7.936       6.177       3.520      8.4160E-03
   7   10.000       9.974       9.921       9.800       9.530       8.976       7.936       6.177       3.520      8.4160E-03
   8   10.000       9.974       9.921       9.800       9.530       8.976       7.936       6.177       3.520      8.4160E-03
   9   10.000       9.974       9.921       9.800       9.530       8.976       7.936       6.177       3.520      8.4160E-03
  10   10.000       9.974       9.921       9.800       9.530       8.976       7.936       6.177       3.520      8.4160E-03
1
              HEAD IN LAYER   5 AT END OF TIME STEP  54 IN STRESS PERIOD    2
  ---------------------------------------------------------------------------

            1           2           3           4           5           6           7           8           9          10
 ........................................................................................................................
   1   10.000       9.973       9.920       9.798       9.526       8.969       7.927       6.165       3.508      8.4026E-03
   2   10.000       9.973       9.920       9.798       9.526       8.969       7.927       6.165       3.508      8.4026E-03
   3   10.000       9.973       9.920       9.798       9.526       8.969       7.927       6.165       3.508      8.4026E-03
   4   10.000       9.973       9.920       9.798       9.526       8.969       7.927       6.165       3.508      8.4026E-03
   5   10.000       9.973       9.920       9.798       9.526       8.969       7.927       6.165       3.508      8.4026E-03
   6   10.000       9.973       9.920       9.798       9.526       8.969       7.927       6.165       3.508      8.4026E-03
   7   10.000       9.973       9.920       9.798       9.526       8.969       7.927       6.165       3.508      8.4026E-03
   8   10.000       9.973       9.920       9.798       9.526       8.969       7.927       6.165       3.508      8.4026E-03
   9   10.000       9.973       9.920       9.798       9.526       8.969       7.927       6.165       3.508      8.4026E-03
  10   10.000       9.973       9.920       9.798       9.526       8.969       7.927       6.165       3.508      8.4026E-03

 HEAD WILL BE SAVED ON UNIT   51 AT END OF TIME STEP   54, STRESS PERIOD    2

 DRAWDOWN WILL BE SAVED ON UNIT   52 AT END OF TIME STEP   54, STRESS PERIOD    2
1
  VOLUMETRIC BUDGET FOR ENTIRE MODEL AT END OF TIME STEP   54, STRESS PERIOD   2
  ------------------------------------------------------------------------------

     CUMULATIVE VOLUMES      L**3       RATES FOR THIS TIME STEP      L**3/T
     ------------------                 ------------------------

           IN:                                      IN:
           ---                                      ---
             STORAGE =      249122.6875               STORAGE =        1786.1493
       CONSTANT HEAD =           0.0000         CONSTANT HEAD =           0.0000
               WELLS =           0.0000                 WELLS =           0.0000
     HEAD DEP BOUNDS =         190.3112       HEAD DEP BOUNDS =          15.1841

            TOTAL IN =      249313.0000              TOTAL IN =        1801.3334

          OUT:                                     OUT:
          ----                                     ----
             STORAGE =           0.0000               STORAGE =           0.0000
       CONSTANT HEAD =           0.0000         CONSTANT HEAD =           0.0000
               WELLS =           0.0000                 WELLS =           0.0000
     HEAD DEP BOUNDS =      249313.5312       HEAD DEP BOUNDS =        1801.3164

           TOTAL OUT =      249313.5312             TOTAL OUT =        1801.3164

            IN - OUT =          -0.5312              IN - OUT =       1.6968E-02

 PERCENT DISCREPANCY =          -0.00     PERCENT DISCREPANCY =           0.00






         TIME SUMMARY AT END OF TIME STEP   54 IN STRESS PERIOD    2
                    SECONDS     MINUTES      HOURS       DAYS        YEARS
                    -----------------------------------------------------------
   TIME STEP LENGTH  86400.      1440.0      24.000      1.0000     2.73785E-03
 STRESS PERIOD TIME 4.66560E+06  77760.      1296.0      54.000     0.14784    
         TOTAL TIME 4.75200E+06  79200.      1320.0      55.000     0.15058    
1
 
 SOLVING FOR HEAD 

 OUTPUT CONTROL FOR STRESS PERIOD    2   TIME STEP   55
    SAVE HEAD FOR ALL LAYERS
    SAVE DRAWDOWN FOR ALL LAYERS
    SAVE BUDGET
    PRINT HEAD FOR ALL LAYERS
    PRINT BUDGET
 UBDSV1 SAVING "         STORAGE" ON UNIT  53 AT TIME STEP 55, STRESS PERIOD   2
 UBDSV2 SAVING "   CONSTANT HEAD" ON UNIT  53 AT TIME STEP 55, STRESS PERIOD   2
 UBDSV1 SAVING "FLOW RIGHT FACE " ON UNIT  53 AT TIME STEP 55, STRESS PERIOD   2
 UBDSV1 SAVING "FLOW FRONT FACE " ON UNIT  53 AT TIME STEP 55, STRESS PERIOD   2
 UBDSV1 SAVING "FLOW LOWER FACE " ON UNIT  53 AT TIME STEP 55, STRESS PERIOD   2
1
              HEAD IN LAYER   1 AT END OF TIME STEP  55 IN STRESS PERIOD    2
  ---------------------------------------------------------------------------

            1           2           3           4           5           6           7           8           9          10
 ........................................................................................................................
   1    10.00       9.975       9.926       9.809       9.549       9.008       7.984       6.238       3.583      3.3024E-03
   2    10.00       9.975       9.926       9.809       9.549       9.008       7.984       6.238       3.583      3.3024E-03
   3    10.00       9.975       9.926       9.809       9.549       9.008       7.984       6.238       3.583      3.3024E-03
   4    10.00       9.975       9.926       9.809       9.549       9.008       7.984       6.238       3.583      3.3024E-03
   5    10.00       9.975       9.926       9.809       9.549       9.008       7.984       6.238       3.583      3.3024E-03
   6    10.00       9.975       9.926       9.809       9.549       9.008       7.984       6.238       3.583      3.3024E-03
   7    10.00       9.975       9.926       9.809       9.549       9.008       7.984       6.238       3.583      3.3024E-03
   8    10.00       9.975       9.926       9.809       9.549       9.008       7.984       6.238       3.583      3.3024E-03
   9    10.00       9.975       9.926       9.809       9.549       9.008       7.984       6.238       3.583      3.3024E-03
  10    10.00       9.975       9.926       9.809       9.549       9.008       7.984       6.238       3.583      3.3024E-03
1
              HEAD IN LAYER   2 AT END OF TIME STEP  55 IN STRESS PERIOD    2
  ---------------------------------------------------------------------------

            1           2           3           4           5           6           7           8           9          10
 ........................................................................................................................
   1   10.000       9.974       9.922       9.801       9.533       8.982       7.948       6.197       3.548      7.4512E-03
   2   10.000       9.974       9.922       9.801       9.533       8.982       7.948       6.197       3.548      7.4512E-03
   3   10.000       9.974       9.922       9.801       9.533       8.982       7.948       6.197       3.548      7.4512E-03
   4   10.000       9.974       9.922       9.801       9.533       8.982       7.948       6.197       3.548      7.4512E-03
   5   10.000       9.974       9.922       9.801       9.533       8.982       7.948       6.197       3.548      7.4512E-03
   6   10.000       9.974       9.922       9.801       9.533       8.982       7.948       6.197       3.548      7.4512E-03
   7   10.000       9.974       9.922       9.801       9.533       8.982       7.948       6.197       3.548      7.4512E-03
   8   10.000       9.974       9.922       9.801       9.533       8.982       7.948       6.197       3.548      7.4512E-03
   9   10.000       9.974       9.922       9.801       9.533       8.982       7.948       6.197       3.548      7.4512E-03
  10   10.000       9.974       9.922       9.801       9.533       8.982       7.948       6.197       3.548      7.4512E-03
1
              HEAD IN LAYER   3 AT END OF TIME STEP  55 IN STRESS PERIOD    2
  ---------------------------------------------------------------------------

            1           2           3           4           5           6           7           8           9          10
 ........................................................................................................................
   1   10.000       9.973       9.919       9.795       9.522       8.963       7.919       6.161       3.513      8.2832E-03
   2   10.000       9.973       9.919       9.795       9.522       8.963       7.919       6.161       3.513      8.2832E-03
   3   10.000       9.973       9.919       9.795       9.522       8.963       7.919       6.161       3.513      8.2832E-03
   4   10.000       9.973       9.919       9.795       9.522       8.963       7.919       6.161       3.513      8.2832E-03
   5   10.000       9.973       9.919       9.795       9.522       8.963       7.919       6.161       3.513      8.2832E-03
   6   10.000       9.973       9.919       9.795       9.522       8.963       7.919       6.161       3.513      8.2832E-03
   7   10.000       9.973       9.919       9.795       9.522       8.963       7.919       6.161       3.513      8.2832E-03
   8   10.000       9.973       9.919       9.795       9.522       8.963       7.919       6.161       3.513      8.2832E-03
   9   10.000       9.973       9.919       9.795       9.522       8.963       7.919       6.161       3.513      8.2832E-03
  10   10.000       9.973       9.919       9.795       9.522       8.963       7.919       6.161       3.513      8.2832E-03
1
              HEAD IN LAYER   4 AT END OF TIME STEP  55 IN STRESS PERIOD    2
  ---------------------------------------------------------------------------

            1           2           3           4           5           6           7           8           9          10
 ........................................................................................................................
   1   10.000       9.972       9.917       9.791       9.514       8.949       7.900       6.136       3.490      8.3440E-03
   2   10.000       9.972       9.917       9.791       9.514       8.949       7.900       6.136       3.490      8.3440E-03
   3   10.000       9.972       9.917       9.791       9.514       8.949       7.900       6.136       3.490      8.3440E-03
   4   10.000       9.972       9.917       9.791       9.514       8.949       7.900       6.136       3.490      8.3440E-03
   5   10.000       9.972       9.917       9.791       9.514       8.949       7.900       6.136       3.490      8.3440E-03
   6   10.000       9.972       9.917       9.791       9.514       8.949       7.900       6.136       3.490      8.3440E-03
   7   10.000       9.972       9.917       9.791       9.514       8.949       7.900       6.136       3.490      8.3440E-03
   8   10.000       9.972       9.917       9.791       9.514       8.949       7.900       6.136       3.490      8.3440E-03
   9   10.000       9.972       9.917       9.791       9.514       8.949       7.900       6.136       3.490      8.3440E-03
  10   10.000       9.972       9.917       9.791       9.514       8.949       7.900       6.136       3.490      8.3440E-03
1
              HEAD IN LAYER   5 AT END OF TIME STEP  55 IN STRESS PERIOD    2
  ---------------------------------------------------------------------------

            1           2           3           4           5           6           7           8           9          10
 ........................................................................................................................
   1   10.000       9.972       9.916       9.789       9.510       8.943       7.890       6.124       3.479      8.3310E-03
   2   10.000       9.972       9.916       9.789       9.510       8.943       7.890       6.124       3.479      8.3310E-03
   3   10.000       9.972       9.916       9.789       9.510       8.943       7.890       6.124       3.479      8.3310E-03
   4   10.000       9.972       9.916       9.789       9.510       8.943       7.890       6.124       3.479      8.3310E-03
   5   10.000       9.972       9.916       9.789       9.510       8.943       7.890       6.124       3.479      8.3310E-03
   6   10.000       9.972       9.916       9.789       9.510       8.943       7.890       6.124       3.479      8.3310E-03
   7   10.000       9.972       9.916       9.789       9.510       8.943       7.890       6.124       3.479      8.3310E-03
   8   10.000       9.972       9.916       9.789       9.510       8.943       7.890       6.124       3.479      8.3310E-03
   9   10.000       9.972       9.916       9.789       9.510       8.943       7.890       6.124       3.479      8.3310E-03
  10   10.000       9.972       9.916       9.789       9.510       8.943       7.890       6.124       3.479      8.3310E-03

 HEAD WILL BE SAVED ON UNIT   51 AT END OF TIME STEP   55, STRESS PERIOD    2

 DRAWDOWN WILL BE SAVED ON UNIT   52 AT END OF TIME STEP   55, STRESS PERIOD    2
1
  VOLUMETRIC BUDGET FOR ENTIRE MODEL AT END OF TIME STEP   55, STRESS PERIOD   2
  ------------------------------------------------------------------------------

     CUMULATIVE VOLUMES      L**3       RATES FOR THIS TIME STEP      L**3/T
     ------------------                 ------------------------

           IN:                                      IN:
           ---                                      ---
             STORAGE =      250892.1406               STORAGE =        1769.4589
       CONSTANT HEAD =           0.0000         CONSTANT HEAD =           0.0000
               WELLS =           0.0000                 WELLS =           0.0000
     HEAD DEP BOUNDS =         206.4104       HEAD DEP BOUNDS =          16.0992

            TOTAL IN =      251098.5469              TOTAL IN =        1785.5581

          OUT:                                     OUT:
          ----                                     ----
             STORAGE =           0.0000               STORAGE =           0.0000
       CONSTANT HEAD =           0.0000         CONSTANT HEAD =           0.0000
               WELLS =           0.0000                 WELLS =           0.0000
     HEAD DEP BOUNDS =      251099.1250       HEAD DEP BOUNDS =        1785.5862

           TOTAL OUT =      251099.1250             TOTAL OUT =        1785.5862

            IN - OUT =          -0.5781              IN - OUT =      -2.8076E-02

 PERCENT DISCREPANCY =          -0.00     PERCENT DISCREPANCY =          -0.00






         TIME SUMMARY AT END OF TIME STEP   55 IN STRESS PERIOD    2
                    SECONDS     MINUTES      HOURS       DAYS        YEARS
                    -----------------------------------------------------------
   TIME STEP LENGTH  86400.      1440.0      24.000      1.0000     2.73785E-03
 STRESS PERIOD TIME 4.75200E+06  79200.      1320.0      55.000     0.15058    
         TOTAL TIME 4.83840E+06  80640.      1344.0      56.000     0.15332    
1
 
 SOLVING FOR HEAD 

 OUTPUT CONTROL FOR STRESS PERIOD    2   TIME STEP   56
    SAVE HEAD FOR ALL LAYERS
    SAVE DRAWDOWN FOR ALL LAYERS
    SAVE BUDGET
    PRINT HEAD FOR ALL LAYERS
    PRINT BUDGET
 UBDSV1 SAVING "         STORAGE" ON UNIT  53 AT TIME STEP 56, STRESS PERIOD   2
 UBDSV2 SAVING "   CONSTANT HEAD" ON UNIT  53 AT TIME STEP 56, STRESS PERIOD   2
 UBDSV1 SAVING "FLOW RIGHT FACE " ON UNIT  53 AT TIME STEP 56, STRESS PERIOD   2
 UBDSV1 SAVING "FLOW FRONT FACE " ON UNIT  53 AT TIME STEP 56, STRESS PERIOD   2
 UBDSV1 SAVING "FLOW LOWER FACE " ON UNIT  53 AT TIME STEP 56, STRESS PERIOD   2
1
              HEAD IN LAYER   1 AT END OF TIME STEP  56 IN STRESS PERIOD    2
  ---------------------------------------------------------------------------

            1           2           3           4           5           6           7           8           9          10
 ........................................................................................................................
   1   10.000       9.974       9.922       9.801       9.533       8.981       7.947       6.196       3.551      3.2710E-03
   2   10.000       9.974       9.922       9.801       9.533       8.981       7.947       6.196       3.551      3.2710E-03
   3   10.000       9.974       9.922       9.801       9.533       8.981       7.947       6.196       3.551      3.2710E-03
   4   10.000       9.974       9.922       9.801       9.533       8.981       7.947       6.196       3.551      3.2710E-03
   5   10.000       9.974       9.922       9.801       9.533       8.981       7.947       6.196       3.551      3.2710E-03
   6   10.000       9.974       9.922       9.801       9.533       8.981       7.947       6.196       3.551      3.2710E-03
   7   10.000       9.974       9.922       9.801       9.533       8.981       7.947       6.196       3.551      3.2710E-03
   8   10.000       9.974       9.922       9.801       9.533       8.981       7.947       6.196       3.551      3.2710E-03
   9   10.000       9.974       9.922       9.801       9.533       8.981       7.947       6.196       3.551      3.2710E-03
  10   10.000       9.974       9.922       9.801       9.533       8.981       7.947       6.196       3.551      3.2710E-03
1
              HEAD IN LAYER   2 AT END OF TIME STEP  56 IN STRESS PERIOD    2
  ---------------------------------------------------------------------------

            1           2           3           4           5           6           7           8           9          10
 ........................................................................................................................
   1   10.000       9.972       9.918       9.793       9.517       8.956       7.912       6.156       3.517      7.3863E-03
   2   10.000       9.972       9.918       9.793       9.517       8.956       7.912       6.156       3.517      7.3863E-03
   3   10.000       9.972       9.918       9.793       9.517       8.956       7.912       6.156       3.517      7.3863E-03
   4   10.000       9.972       9.918       9.793       9.517       8.956       7.912       6.156       3.517      7.3863E-03
   5   10.000       9.972       9.918       9.793       9.517       8.956       7.912       6.156       3.517      7.3863E-03
   6   10.000       9.972       9.918       9.793       9.517       8.956       7.912       6.156       3.517      7.3863E-03
   7   10.000       9.972       9.918       9.793       9.517       8.956       7.912       6.156       3.517      7.3863E-03
   8   10.000       9.972       9.918       9.793       9.517       8.956       7.912       6.156       3.517      7.3863E-03
   9   10.000       9.972       9.918       9.793       9.517       8.956       7.912       6.156       3.517      7.3863E-03
  10   10.000       9.972       9.918       9.793       9.517       8.956       7.912       6.156       3.517      7.3863E-03
1
              HEAD IN LAYER   3 AT END OF TIME STEP  56 IN STRESS PERIOD    2
  ---------------------------------------------------------------------------

            1           2           3           4           5           6           7           8           9          10
 ........................................................................................................................
   1   10.000       9.971       9.915       9.786       9.505       8.936       7.883       6.120       3.483      8.2126E-03
   2   10.000       9.971       9.915       9.786       9.505       8.936       7.883       6.120       3.483      8.2126E-03
   3   10.000       9.971       9.915       9.786       9.505       8.936       7.883       6.120       3.483      8.2126E-03
   4   10.000       9.971       9.915       9.786       9.505       8.936       7.883       6.120       3.483      8.2126E-03
   5   10.000       9.971       9.915       9.786       9.505       8.936       7.883       6.120       3.483      8.2126E-03
   6   10.000       9.971       9.915       9.786       9.505       8.936       7.883       6.120       3.483      8.2126E-03
   7   10.000       9.971       9.915       9.786       9.505       8.936       7.883       6.120       3.483      8.2126E-03
   8   10.000       9.971       9.915       9.786       9.505       8.936       7.883       6.120       3.483      8.2126E-03
   9   10.000       9.971       9.915       9.786       9.505       8.936       7.883       6.120       3.483      8.2126E-03
  10   10.000       9.971       9.915       9.786       9.505       8.936       7.883       6.120       3.483      8.2126E-03
1
              HEAD IN LAYER   4 AT END OF TIME STEP  56 IN STRESS PERIOD    2
  ---------------------------------------------------------------------------

            1           2           3           4           5           6           7           8           9          10
 ........................................................................................................................
   1   10.000       9.970       9.913       9.782       9.497       8.923       7.863       6.096       3.461      8.2737E-03
   2   10.000       9.970       9.913       9.782       9.497       8.923       7.863       6.096       3.461      8.2737E-03
   3   10.000       9.970       9.913       9.782       9.497       8.923       7.863       6.096       3.461      8.2737E-03
   4   10.000       9.970       9.913       9.782       9.497       8.923       7.863       6.096       3.461      8.2737E-03
   5   10.000       9.970       9.913       9.782       9.497       8.923       7.863       6.096       3.461      8.2737E-03
   6   10.000       9.970       9.913       9.782       9.497       8.923       7.863       6.096       3.461      8.2737E-03
   7   10.000       9.970       9.913       9.782       9.497       8.923       7.863       6.096       3.461      8.2737E-03
   8   10.000       9.970       9.913       9.782       9.497       8.923       7.863       6.096       3.461      8.2737E-03
   9   10.000       9.970       9.913       9.782       9.497       8.923       7.863       6.096       3.461      8.2737E-03
  10   10.000       9.970       9.913       9.782       9.497       8.923       7.863       6.096       3.461      8.2737E-03
1
              HEAD IN LAYER   5 AT END OF TIME STEP  56 IN STRESS PERIOD    2
  ---------------------------------------------------------------------------

            1           2           3           4           5           6           7           8           9          10
 ........................................................................................................................
   1   10.000       9.970       9.912       9.780       9.494       8.916       7.854       6.084       3.449      8.2612E-03
   2   10.000       9.970       9.912       9.780       9.494       8.916       7.854       6.084       3.449      8.2612E-03
   3   10.000       9.970       9.912       9.780       9.494       8.916       7.854       6.084       3.449      8.2612E-03
   4   10.000       9.970       9.912       9.780       9.494       8.916       7.854       6.084       3.449      8.2612E-03
   5   10.000       9.970       9.912       9.780       9.494       8.916       7.854       6.084       3.449      8.2612E-03
   6   10.000       9.970       9.912       9.780       9.494       8.916       7.854       6.084       3.449      8.2612E-03
   7   10.000       9.970       9.912       9.780       9.494       8.916       7.854       6.084       3.449      8.2612E-03
   8   10.000       9.970       9.912       9.780       9.494       8.916       7.854       6.084       3.449      8.2612E-03
   9   10.000       9.970       9.912       9.780       9.494       8.916       7.854       6.084       3.449      8.2612E-03
  10   10.000       9.970       9.912       9.780       9.494       8.916       7.854       6.084       3.449      8.2612E-03

 HEAD WILL BE SAVED ON UNIT   51 AT END OF TIME STEP   56, STRESS PERIOD    2

 DRAWDOWN WILL BE SAVED ON UNIT   52 AT END OF TIME STEP   56, STRESS PERIOD    2
1
  VOLUMETRIC BUDGET FOR ENTIRE MODEL AT END OF TIME STEP   56, STRESS PERIOD   2
  ------------------------------------------------------------------------------

     CUMULATIVE VOLUMES      L**3       RATES FOR THIS TIME STEP      L**3/T
     ------------------                 ------------------------

           IN:                                      IN:
           ---                                      ---
             STORAGE =      252645.2812               STORAGE =        1753.1345
       CONSTANT HEAD =           0.0000         CONSTANT HEAD =           0.0000
               WELLS =           0.0000                 WELLS =           0.0000
     HEAD DEP BOUNDS =         223.4567       HEAD DEP BOUNDS =          17.0463

            TOTAL IN =      252868.7344              TOTAL IN =        1770.1809

          OUT:                                     OUT:
          ----                                     ----
             STORAGE =           0.0000               STORAGE =           0.0000
       CONSTANT HEAD =           0.0000         CONSTANT HEAD =           0.0000
               WELLS =           0.0000                 WELLS =           0.0000
     HEAD DEP BOUNDS =      252869.3594       HEAD DEP BOUNDS =        1770.2407

           TOTAL OUT =      252869.3594             TOTAL OUT =        1770.2407

            IN - OUT =          -0.6250              IN - OUT =      -5.9814E-02

 PERCENT DISCREPANCY =          -0.00     PERCENT DISCREPANCY =          -0.00






         TIME SUMMARY AT END OF TIME STEP   56 IN STRESS PERIOD    2
                    SECONDS     MINUTES      HOURS       DAYS        YEARS
                    -----------------------------------------------------------
   TIME STEP LENGTH  86400.      1440.0      24.000      1.0000     2.73785E-03
 STRESS PERIOD TIME 4.83840E+06  80640.      1344.0      56.000     0.15332    
         TOTAL TIME 4.92480E+06  82080.      1368.0      57.000     0.15606    
1
 
 SOLVING FOR HEAD 

 OUTPUT CONTROL FOR STRESS PERIOD    2   TIME STEP   57
    SAVE HEAD FOR ALL LAYERS
    SAVE DRAWDOWN FOR ALL LAYERS
    SAVE BUDGET
    PRINT HEAD FOR ALL LAYERS
    PRINT BUDGET
 UBDSV1 SAVING "         STORAGE" ON UNIT  53 AT TIME STEP 57, STRESS PERIOD   2
 UBDSV2 SAVING "   CONSTANT HEAD" ON UNIT  53 AT TIME STEP 57, STRESS PERIOD   2
 UBDSV1 SAVING "FLOW RIGHT FACE " ON UNIT  53 AT TIME STEP 57, STRESS PERIOD   2
 UBDSV1 SAVING "FLOW FRONT FACE " ON UNIT  53 AT TIME STEP 57, STRESS PERIOD   2
 UBDSV1 SAVING "FLOW LOWER FACE " ON UNIT  53 AT TIME STEP 57, STRESS PERIOD   2
1
              HEAD IN LAYER   1 AT END OF TIME STEP  57 IN STRESS PERIOD    2
  ---------------------------------------------------------------------------

            1           2           3           4           5           6           7           8           9          10
 ........................................................................................................................
   1   10.000       9.972       9.917       9.792       9.516       8.955       7.910       6.155       3.521      3.2404E-03
   2   10.000       9.972       9.917       9.792       9.516       8.955       7.910       6.155       3.521      3.2404E-03
   3   10.000       9.972       9.917       9.792       9.516       8.955       7.910       6.155       3.521      3.2404E-03
   4   10.000       9.972       9.917       9.792       9.516       8.955       7.910       6.155       3.521      3.2404E-03
   5   10.000       9.972       9.917       9.792       9.516       8.955       7.910       6.155       3.521      3.2404E-03
   6   10.000       9.972       9.917       9.792       9.516       8.955       7.910       6.155       3.521      3.2404E-03
   7   10.000       9.972       9.917       9.792       9.516       8.955       7.910       6.155       3.521      3.2404E-03
   8   10.000       9.972       9.917       9.792       9.516       8.955       7.910       6.155       3.521      3.2404E-03
   9   10.000       9.972       9.917       9.792       9.516       8.955       7.910       6.155       3.521      3.2404E-03
  10   10.000       9.972       9.917       9.792       9.516       8.955       7.910       6.155       3.521      3.2404E-03
1
              HEAD IN LAYER   2 AT END OF TIME STEP  57 IN STRESS PERIOD    2
  ---------------------------------------------------------------------------

            1           2           3           4           5           6           7           8           9          10
 ........................................................................................................................
   1   10.000       9.970       9.913       9.784       9.501       8.929       7.875       6.116       3.487      7.3231E-03
   2   10.000       9.970       9.913       9.784       9.501       8.929       7.875       6.116       3.487      7.3231E-03
   3   10.000       9.970       9.913       9.784       9.501       8.929       7.875       6.116       3.487      7.3231E-03
   4   10.000       9.970       9.913       9.784       9.501       8.929       7.875       6.116       3.487      7.3231E-03
   5   10.000       9.970       9.913       9.784       9.501       8.929       7.875       6.116       3.487      7.3231E-03
   6   10.000       9.970       9.913       9.784       9.501       8.929       7.875       6.116       3.487      7.3231E-03
   7   10.000       9.970       9.913       9.784       9.501       8.929       7.875       6.116       3.487      7.3231E-03
   8   10.000       9.970       9.913       9.784       9.501       8.929       7.875       6.116       3.487      7.3231E-03
   9   10.000       9.970       9.913       9.784       9.501       8.929       7.875       6.116       3.487      7.3231E-03
  10   10.000       9.970       9.913       9.784       9.501       8.929       7.875       6.116       3.487      7.3231E-03
1
              HEAD IN LAYER   3 AT END OF TIME STEP  57 IN STRESS PERIOD    2
  ---------------------------------------------------------------------------

            1           2           3           4           5           6           7           8           9          10
 ........................................................................................................................
   1   10.000       9.969       9.910       9.777       9.489       8.910       7.846       6.080       3.454      8.1438E-03
   2   10.000       9.969       9.910       9.777       9.489       8.910       7.846       6.080       3.454      8.1438E-03
   3   10.000       9.969       9.910       9.777       9.489       8.910       7.846       6.080       3.454      8.1438E-03
   4   10.000       9.969       9.910       9.777       9.489       8.910       7.846       6.080       3.454      8.1438E-03
   5   10.000       9.969       9.910       9.777       9.489       8.910       7.846       6.080       3.454      8.1438E-03
   6   10.000       9.969       9.910       9.777       9.489       8.910       7.846       6.080       3.454      8.1438E-03
   7   10.000       9.969       9.910       9.777       9.489       8.910       7.846       6.080       3.454      8.1438E-03
   8   10.000       9.969       9.910       9.777       9.489       8.910       7.846       6.080       3.454      8.1438E-03
   9   10.000       9.969       9.910       9.777       9.489       8.910       7.846       6.080       3.454      8.1438E-03
  10   10.000       9.969       9.910       9.777       9.489       8.910       7.846       6.080       3.454      8.1438E-03
1
              HEAD IN LAYER   4 AT END OF TIME STEP  57 IN STRESS PERIOD    2
  ---------------------------------------------------------------------------

            1           2           3           4           5           6           7           8           9          10
 ........................................................................................................................
   1   10.000       9.969       9.908       9.773       9.481       8.896       7.827       6.057       3.432      8.2051E-03
   2   10.000       9.969       9.908       9.773       9.481       8.896       7.827       6.057       3.432      8.2051E-03
   3   10.000       9.969       9.908       9.773       9.481       8.896       7.827       6.057       3.432      8.2051E-03
   4   10.000       9.969       9.908       9.773       9.481       8.896       7.827       6.057       3.432      8.2051E-03
   5   10.000       9.969       9.908       9.773       9.481       8.896       7.827       6.057       3.432      8.2051E-03
   6   10.000       9.969       9.908       9.773       9.481       8.896       7.827       6.057       3.432      8.2051E-03
   7   10.000       9.969       9.908       9.773       9.481       8.896       7.827       6.057       3.432      8.2051E-03
   8   10.000       9.969       9.908       9.773       9.481       8.896       7.827       6.057       3.432      8.2051E-03
   9   10.000       9.969       9.908       9.773       9.481       8.896       7.827       6.057       3.432      8.2051E-03
  10   10.000       9.969       9.908       9.773       9.481       8.896       7.827       6.057       3.432      8.2051E-03
1
              HEAD IN LAYER   5 AT END OF TIME STEP  57 IN STRESS PERIOD    2
  ---------------------------------------------------------------------------

            1           2           3           4           5           6           7           8           9          10
 ........................................................................................................................
   1   10.000       9.968       9.907       9.771       9.477       8.890       7.818       6.045       3.421      8.1931E-03
   2   10.000       9.968       9.907       9.771       9.477       8.890       7.818       6.045       3.421      8.1931E-03
   3   10.000       9.968       9.907       9.771       9.477       8.890       7.818       6.045       3.421      8.1931E-03
   4   10.000       9.968       9.907       9.771       9.477       8.890       7.818       6.045       3.421      8.1931E-03
   5   10.000       9.968       9.907       9.771       9.477       8.890       7.818       6.045       3.421      8.1931E-03
   6   10.000       9.968       9.907       9.771       9.477       8.890       7.818       6.045       3.421      8.1931E-03
   7   10.000       9.968       9.907       9.771       9.477       8.890       7.818       6.045       3.421      8.1931E-03
   8   10.000       9.968       9.907       9.771       9.477       8.890       7.818       6.045       3.421      8.1931E-03
   9   10.000       9.968       9.907       9.771       9.477       8.890       7.818       6.045       3.421      8.1931E-03
  10   10.000       9.968       9.907       9.771       9.477       8.890       7.818       6.045       3.421      8.1931E-03

 HEAD WILL BE SAVED ON UNIT   51 AT END OF TIME STEP   57, STRESS PERIOD    2

 DRAWDOWN WILL BE SAVED ON UNIT   52 AT END OF TIME STEP   57, STRESS PERIOD    2
1
  VOLUMETRIC BUDGET FOR ENTIRE MODEL AT END OF TIME STEP   57, STRESS PERIOD   2
  ------------------------------------------------------------------------------

     CUMULATIVE VOLUMES      L**3       RATES FOR THIS TIME STEP      L**3/T
     ------------------                 ------------------------

           IN:                                      IN:
           ---                                      ---
             STORAGE =      254382.4688               STORAGE =        1737.1808
       CONSTANT HEAD =           0.0000         CONSTANT HEAD =           0.0000
               WELLS =           0.0000                 WELLS =           0.0000
     HEAD DEP BOUNDS =         241.5503       HEAD DEP BOUNDS =          18.0936

            TOTAL IN =      254624.0156              TOTAL IN =        1755.2744

          OUT:                                     OUT:
          ----                                     ----
             STORAGE =           0.0000               STORAGE =           0.0000
       CONSTANT HEAD =           0.0000         CONSTANT HEAD =           0.0000
               WELLS =           0.0000                 WELLS =           0.0000
     HEAD DEP BOUNDS =      254624.6406       HEAD DEP BOUNDS =        1755.2738

           TOTAL OUT =      254624.6406             TOTAL OUT =        1755.2738

            IN - OUT =          -0.6250              IN - OUT =       6.1035E-04

 PERCENT DISCREPANCY =          -0.00     PERCENT DISCREPANCY =           0.00






         TIME SUMMARY AT END OF TIME STEP   57 IN STRESS PERIOD    2
                    SECONDS     MINUTES      HOURS       DAYS        YEARS
                    -----------------------------------------------------------
   TIME STEP LENGTH  86400.      1440.0      24.000      1.0000     2.73785E-03
 STRESS PERIOD TIME 4.92480E+06  82080.      1368.0      57.000     0.15606    
         TOTAL TIME 5.01120E+06  83520.      1392.0      58.000     0.15880    
1
 
 SOLVING FOR HEAD 

 OUTPUT CONTROL FOR STRESS PERIOD    2   TIME STEP   58
    SAVE HEAD FOR ALL LAYERS
    SAVE DRAWDOWN FOR ALL LAYERS
    SAVE BUDGET
    PRINT HEAD FOR ALL LAYERS
    PRINT BUDGET
 UBDSV1 SAVING "         STORAGE" ON UNIT  53 AT TIME STEP 58, STRESS PERIOD   2
 UBDSV2 SAVING "   CONSTANT HEAD" ON UNIT  53 AT TIME STEP 58, STRESS PERIOD   2
 UBDSV1 SAVING "FLOW RIGHT FACE " ON UNIT  53 AT TIME STEP 58, STRESS PERIOD   2
 UBDSV1 SAVING "FLOW FRONT FACE " ON UNIT  53 AT TIME STEP 58, STRESS PERIOD   2
 UBDSV1 SAVING "FLOW LOWER FACE " ON UNIT  53 AT TIME STEP 58, STRESS PERIOD   2
1
              HEAD IN LAYER   1 AT END OF TIME STEP  58 IN STRESS PERIOD    2
  ---------------------------------------------------------------------------

            1           2           3           4           5           6           7           8           9          10
 ........................................................................................................................
   1   10.000       9.970       9.913       9.783       9.500       8.928       7.874       6.115       3.491      3.2105E-03
   2   10.000       9.970       9.913       9.783       9.500       8.928       7.874       6.115       3.491      3.2105E-03
   3   10.000       9.970       9.913       9.783       9.500       8.928       7.874       6.115       3.491      3.2105E-03
   4   10.000       9.970       9.913       9.783       9.500       8.928       7.874       6.115       3.491      3.2105E-03
   5   10.000       9.970       9.913       9.783       9.500       8.928       7.874       6.115       3.491      3.2105E-03
   6   10.000       9.970       9.913       9.783       9.500       8.928       7.874       6.115       3.491      3.2105E-03
   7   10.000       9.970       9.913       9.783       9.500       8.928       7.874       6.115       3.491      3.2105E-03
   8   10.000       9.970       9.913       9.783       9.500       8.928       7.874       6.115       3.491      3.2105E-03
   9   10.000       9.970       9.913       9.783       9.500       8.928       7.874       6.115       3.491      3.2105E-03
  10   10.000       9.970       9.913       9.783       9.500       8.928       7.874       6.115       3.491      3.2105E-03
1
              HEAD IN LAYER   2 AT END OF TIME STEP  58 IN STRESS PERIOD    2
  ---------------------------------------------------------------------------

            1           2           3           4           5           6           7           8           9          10
 ........................................................................................................................
   1   10.000       9.969       9.909       9.775       9.484       8.903       7.839       6.076       3.458      7.2614E-03
   2   10.000       9.969       9.909       9.775       9.484       8.903       7.839       6.076       3.458      7.2614E-03
   3   10.000       9.969       9.909       9.775       9.484       8.903       7.839       6.076       3.458      7.2614E-03
   4   10.000       9.969       9.909       9.775       9.484       8.903       7.839       6.076       3.458      7.2614E-03
   5   10.000       9.969       9.909       9.775       9.484       8.903       7.839       6.076       3.458      7.2614E-03
   6   10.000       9.969       9.909       9.775       9.484       8.903       7.839       6.076       3.458      7.2614E-03
   7   10.000       9.969       9.909       9.775       9.484       8.903       7.839       6.076       3.458      7.2614E-03
   8   10.000       9.969       9.909       9.775       9.484       8.903       7.839       6.076       3.458      7.2614E-03
   9   10.000       9.969       9.909       9.775       9.484       8.903       7.839       6.076       3.458      7.2614E-03
  10   10.000       9.969       9.909       9.775       9.484       8.903       7.839       6.076       3.458      7.2614E-03
1
              HEAD IN LAYER   3 AT END OF TIME STEP  58 IN STRESS PERIOD    2
  ---------------------------------------------------------------------------

            1           2           3           4           5           6           7           8           9          10
 ........................................................................................................................
   1   10.000       9.968       9.906       9.768       9.472       8.883       7.811       6.042       3.426      8.0766E-03
   2   10.000       9.968       9.906       9.768       9.472       8.883       7.811       6.042       3.426      8.0766E-03
   3   10.000       9.968       9.906       9.768       9.472       8.883       7.811       6.042       3.426      8.0766E-03
   4   10.000       9.968       9.906       9.768       9.472       8.883       7.811       6.042       3.426      8.0766E-03
   5   10.000       9.968       9.906       9.768       9.472       8.883       7.811       6.042       3.426      8.0766E-03
   6   10.000       9.968       9.906       9.768       9.472       8.883       7.811       6.042       3.426      8.0766E-03
   7   10.000       9.968       9.906       9.768       9.472       8.883       7.811       6.042       3.426      8.0766E-03
   8   10.000       9.968       9.906       9.768       9.472       8.883       7.811       6.042       3.426      8.0766E-03
   9   10.000       9.968       9.906       9.768       9.472       8.883       7.811       6.042       3.426      8.0766E-03
  10   10.000       9.968       9.906       9.768       9.472       8.883       7.811       6.042       3.426      8.0766E-03
1
              HEAD IN LAYER   4 AT END OF TIME STEP  58 IN STRESS PERIOD    2
  ---------------------------------------------------------------------------

            1           2           3           4           5           6           7           8           9          10
 ........................................................................................................................
   1   10.000       9.967       9.904       9.764       9.464       8.870       7.792       6.018       3.404      8.1382E-03
   2   10.000       9.967       9.904       9.764       9.464       8.870       7.792       6.018       3.404      8.1382E-03
   3   10.000       9.967       9.904       9.764       9.464       8.870       7.792       6.018       3.404      8.1382E-03
   4   10.000       9.967       9.904       9.764       9.464       8.870       7.792       6.018       3.404      8.1382E-03
   5   10.000       9.967       9.904       9.764       9.464       8.870       7.792       6.018       3.404      8.1382E-03
   6   10.000       9.967       9.904       9.764       9.464       8.870       7.792       6.018       3.404      8.1382E-03
   7   10.000       9.967       9.904       9.764       9.464       8.870       7.792       6.018       3.404      8.1382E-03
   8   10.000       9.967       9.904       9.764       9.464       8.870       7.792       6.018       3.404      8.1382E-03
   9   10.000       9.967       9.904       9.764       9.464       8.870       7.792       6.018       3.404      8.1382E-03
  10   10.000       9.967       9.904       9.764       9.464       8.870       7.792       6.018       3.404      8.1382E-03
1
              HEAD IN LAYER   5 AT END OF TIME STEP  58 IN STRESS PERIOD    2
  ---------------------------------------------------------------------------

            1           2           3           4           5           6           7           8           9          10
 ........................................................................................................................
   1   10.000       9.966       9.903       9.762       9.460       8.863       7.782       6.007       3.393      8.1266E-03
   2   10.000       9.966       9.903       9.762       9.460       8.863       7.782       6.007       3.393      8.1266E-03
   3   10.000       9.966       9.903       9.762       9.460       8.863       7.782       6.007       3.393      8.1266E-03
   4   10.000       9.966       9.903       9.762       9.460       8.863       7.782       6.007       3.393      8.1266E-03
   5   10.000       9.966       9.903       9.762       9.460       8.863       7.782       6.007       3.393      8.1266E-03
   6   10.000       9.966       9.903       9.762       9.460       8.863       7.782       6.007       3.393      8.1266E-03
   7   10.000       9.966       9.903       9.762       9.460       8.863       7.782       6.007       3.393      8.1266E-03
   8   10.000       9.966       9.903       9.762       9.460       8.863       7.782       6.007       3.393      8.1266E-03
   9   10.000       9.966       9.903       9.762       9.460       8.863       7.782       6.007       3.393      8.1266E-03
  10   10.000       9.966       9.903       9.762       9.460       8.863       7.782       6.007       3.393      8.1266E-03

 HEAD WILL BE SAVED ON UNIT   51 AT END OF TIME STEP   58, STRESS PERIOD    2

 DRAWDOWN WILL BE SAVED ON UNIT   52 AT END OF TIME STEP   58, STRESS PERIOD    2
1
  VOLUMETRIC BUDGET FOR ENTIRE MODEL AT END OF TIME STEP   58, STRESS PERIOD   2
  ------------------------------------------------------------------------------

     CUMULATIVE VOLUMES      L**3       RATES FOR THIS TIME STEP      L**3/T
     ------------------                 ------------------------

           IN:                                      IN:
           ---                                      ---
             STORAGE =      256103.9844               STORAGE =        1721.5168
       CONSTANT HEAD =           0.0000         CONSTANT HEAD =           0.0000
               WELLS =           0.0000                 WELLS =           0.0000
     HEAD DEP BOUNDS =         260.6559       HEAD DEP BOUNDS =          19.1057

            TOTAL IN =      256364.6406              TOTAL IN =        1740.6226

          OUT:                                     OUT:
          ----                                     ----
             STORAGE =           0.0000               STORAGE =           0.0000
       CONSTANT HEAD =           0.0000         CONSTANT HEAD =           0.0000
               WELLS =           0.0000                 WELLS =           0.0000
     HEAD DEP BOUNDS =      256365.2969       HEAD DEP BOUNDS =        1740.6615

           TOTAL OUT =      256365.2969             TOTAL OUT =        1740.6615

            IN - OUT =          -0.6562              IN - OUT =      -3.8940E-02

 PERCENT DISCREPANCY =          -0.00     PERCENT DISCREPANCY =          -0.00






         TIME SUMMARY AT END OF TIME STEP   58 IN STRESS PERIOD    2
                    SECONDS     MINUTES      HOURS       DAYS        YEARS
                    -----------------------------------------------------------
   TIME STEP LENGTH  86400.      1440.0      24.000      1.0000     2.73785E-03
 STRESS PERIOD TIME 5.01120E+06  83520.      1392.0      58.000     0.15880    
         TOTAL TIME 5.09760E+06  84960.      1416.0      59.000     0.16153    
1
 
 SOLVING FOR HEAD 

 OUTPUT CONTROL FOR STRESS PERIOD    2   TIME STEP   59
    SAVE HEAD FOR ALL LAYERS
    SAVE DRAWDOWN FOR ALL LAYERS
    SAVE BUDGET
    PRINT HEAD FOR ALL LAYERS
    PRINT BUDGET
 UBDSV1 SAVING "         STORAGE" ON UNIT  53 AT TIME STEP 59, STRESS PERIOD   2
 UBDSV2 SAVING "   CONSTANT HEAD" ON UNIT  53 AT TIME STEP 59, STRESS PERIOD   2
 UBDSV1 SAVING "FLOW RIGHT FACE " ON UNIT  53 AT TIME STEP 59, STRESS PERIOD   2
 UBDSV1 SAVING "FLOW FRONT FACE " ON UNIT  53 AT TIME STEP 59, STRESS PERIOD   2
 UBDSV1 SAVING "FLOW LOWER FACE " ON UNIT  53 AT TIME STEP 59, STRESS PERIOD   2
1
              HEAD IN LAYER   1 AT END OF TIME STEP  59 IN STRESS PERIOD    2
  ---------------------------------------------------------------------------

            1           2           3           4           5           6           7           8           9          10
 ........................................................................................................................
   1   10.000       9.969       9.909       9.774       9.483       8.902       7.838       6.076       3.461      3.1813E-03
   2   10.000       9.969       9.909       9.774       9.483       8.902       7.838       6.076       3.461      3.1813E-03
   3   10.000       9.969       9.909       9.774       9.483       8.902       7.838       6.076       3.461      3.1813E-03
   4   10.000       9.969       9.909       9.774       9.483       8.902       7.838       6.076       3.461      3.1813E-03
   5   10.000       9.969       9.909       9.774       9.483       8.902       7.838       6.076       3.461      3.1813E-03
   6   10.000       9.969       9.909       9.774       9.483       8.902       7.838       6.076       3.461      3.1813E-03
   7   10.000       9.969       9.909       9.774       9.483       8.902       7.838       6.076       3.461      3.1813E-03
   8   10.000       9.969       9.909       9.774       9.483       8.902       7.838       6.076       3.461      3.1813E-03
   9   10.000       9.969       9.909       9.774       9.483       8.902       7.838       6.076       3.461      3.1813E-03
  10   10.000       9.969       9.909       9.774       9.483       8.902       7.838       6.076       3.461      3.1813E-03
1
              HEAD IN LAYER   2 AT END OF TIME STEP  59 IN STRESS PERIOD    2
  ---------------------------------------------------------------------------

            1           2           3           4           5           6           7           8           9          10
 ........................................................................................................................
   1   10.000       9.967       9.904       9.765       9.468       8.877       7.803       6.037       3.430      7.2012E-03
   2   10.000       9.967       9.904       9.765       9.468       8.877       7.803       6.037       3.430      7.2012E-03
   3   10.000       9.967       9.904       9.765       9.468       8.877       7.803       6.037       3.430      7.2012E-03
   4   10.000       9.967       9.904       9.765       9.468       8.877       7.803       6.037       3.430      7.2012E-03
   5   10.000       9.967       9.904       9.765       9.468       8.877       7.803       6.037       3.430      7.2012E-03
   6   10.000       9.967       9.904       9.765       9.468       8.877       7.803       6.037       3.430      7.2012E-03
   7   10.000       9.967       9.904       9.765       9.468       8.877       7.803       6.037       3.430      7.2012E-03
   8   10.000       9.967       9.904       9.765       9.468       8.877       7.803       6.037       3.430      7.2012E-03
   9   10.000       9.967       9.904       9.765       9.468       8.877       7.803       6.037       3.430      7.2012E-03
  10   10.000       9.967       9.904       9.765       9.468       8.877       7.803       6.037       3.430      7.2012E-03
1
              HEAD IN LAYER   3 AT END OF TIME STEP  59 IN STRESS PERIOD    2
  ---------------------------------------------------------------------------

            1           2           3           4           5           6           7           8           9          10
 ........................................................................................................................
   1   10.000       9.966       9.901       9.759       9.456       8.857       7.775       6.003       3.398      8.0110E-03
   2   10.000       9.966       9.901       9.759       9.456       8.857       7.775       6.003       3.398      8.0110E-03
   3   10.000       9.966       9.901       9.759       9.456       8.857       7.775       6.003       3.398      8.0110E-03
   4   10.000       9.966       9.901       9.759       9.456       8.857       7.775       6.003       3.398      8.0110E-03
   5   10.000       9.966       9.901       9.759       9.456       8.857       7.775       6.003       3.398      8.0110E-03
   6   10.000       9.966       9.901       9.759       9.456       8.857       7.775       6.003       3.398      8.0110E-03
   7   10.000       9.966       9.901       9.759       9.456       8.857       7.775       6.003       3.398      8.0110E-03
   8   10.000       9.966       9.901       9.759       9.456       8.857       7.775       6.003       3.398      8.0110E-03
   9   10.000       9.966       9.901       9.759       9.456       8.857       7.775       6.003       3.398      8.0110E-03
  10   10.000       9.966       9.901       9.759       9.456       8.857       7.775       6.003       3.398      8.0110E-03
1
              HEAD IN LAYER   4 AT END OF TIME STEP  59 IN STRESS PERIOD    2
  ---------------------------------------------------------------------------

            1           2           3           4           5           6           7           8           9          10
 ........................................................................................................................
   1   10.000       9.965       9.899       9.754       9.447       8.844       7.756       5.981       3.377      8.0728E-03
   2   10.000       9.965       9.899       9.754       9.447       8.844       7.756       5.981       3.377      8.0728E-03
   3   10.000       9.965       9.899       9.754       9.447       8.844       7.756       5.981       3.377      8.0728E-03
   4   10.000       9.965       9.899       9.754       9.447       8.844       7.756       5.981       3.377      8.0728E-03
   5   10.000       9.965       9.899       9.754       9.447       8.844       7.756       5.981       3.377      8.0728E-03
   6   10.000       9.965       9.899       9.754       9.447       8.844       7.756       5.981       3.377      8.0728E-03
   7   10.000       9.965       9.899       9.754       9.447       8.844       7.756       5.981       3.377      8.0728E-03
   8   10.000       9.965       9.899       9.754       9.447       8.844       7.756       5.981       3.377      8.0728E-03
   9   10.000       9.965       9.899       9.754       9.447       8.844       7.756       5.981       3.377      8.0728E-03
  10   10.000       9.965       9.899       9.754       9.447       8.844       7.756       5.981       3.377      8.0728E-03
1
              HEAD IN LAYER   5 AT END OF TIME STEP  59 IN STRESS PERIOD    2
  ---------------------------------------------------------------------------

            1           2           3           4           5           6           7           8           9          10
 ........................................................................................................................
   1   10.000       9.964       9.898       9.752       9.443       8.837       7.747       5.969       3.366      8.0616E-03
   2   10.000       9.964       9.898       9.752       9.443       8.837       7.747       5.969       3.366      8.0616E-03
   3   10.000       9.964       9.898       9.752       9.443       8.837       7.747       5.969       3.366      8.0616E-03
   4   10.000       9.964       9.898       9.752       9.443       8.837       7.747       5.969       3.366      8.0616E-03
   5   10.000       9.964       9.898       9.752       9.443       8.837       7.747       5.969       3.366      8.0616E-03
   6   10.000       9.964       9.898       9.752       9.443       8.837       7.747       5.969       3.366      8.0616E-03
   7   10.000       9.964       9.898       9.752       9.443       8.837       7.747       5.969       3.366      8.0616E-03
   8   10.000       9.964       9.898       9.752       9.443       8.837       7.747       5.969       3.366      8.0616E-03
   9   10.000       9.964       9.898       9.752       9.443       8.837       7.747       5.969       3.366      8.0616E-03
  10   10.000       9.964       9.898       9.752       9.443       8.837       7.747       5.969       3.366      8.0616E-03

 HEAD WILL BE SAVED ON UNIT   51 AT END OF TIME STEP   59, STRESS PERIOD    2

 DRAWDOWN WILL BE SAVED ON UNIT   52 AT END OF TIME STEP   59, STRESS PERIOD    2
1
  VOLUMETRIC BUDGET FOR ENTIRE MODEL AT END OF TIME STEP   59, STRESS PERIOD   2
  ------------------------------------------------------------------------------

     CUMULATIVE VOLUMES      L**3       RATES FOR THIS TIME STEP      L**3/T
     ------------------                 ------------------------

           IN:                                      IN:
           ---                                      ---
             STORAGE =      257810.1562               STORAGE =        1706.1794
       CONSTANT HEAD =           0.0000         CONSTANT HEAD =           0.0000
               WELLS =           0.0000                 WELLS =           0.0000
     HEAD DEP BOUNDS =         280.8733       HEAD DEP BOUNDS =          20.2173

            TOTAL IN =      258091.0312              TOTAL IN =        1726.3967

          OUT:                                     OUT:
          ----                                     ----
             STORAGE =           0.0000               STORAGE =           0.0000
       CONSTANT HEAD =           0.0000         CONSTANT HEAD =           0.0000
               WELLS =           0.0000                 WELLS =           0.0000
     HEAD DEP BOUNDS =      258091.7031       HEAD DEP BOUNDS =        1726.3998

           TOTAL OUT =      258091.7031             TOTAL OUT =        1726.3998

            IN - OUT =          -0.6719              IN - OUT =      -3.0518E-03

 PERCENT DISCREPANCY =          -0.00     PERCENT DISCREPANCY =          -0.00






         TIME SUMMARY AT END OF TIME STEP   59 IN STRESS PERIOD    2
                    SECONDS     MINUTES      HOURS       DAYS        YEARS
                    -----------------------------------------------------------
   TIME STEP LENGTH  86400.      1440.0      24.000      1.0000     2.73785E-03
 STRESS PERIOD TIME 5.09760E+06  84960.      1416.0      59.000     0.16153    
         TOTAL TIME 5.18400E+06  86400.      1440.0      60.000     0.16427    
1
 
 SOLVING FOR HEAD 

 OUTPUT CONTROL FOR STRESS PERIOD    2   TIME STEP   60
    SAVE HEAD FOR ALL LAYERS
    SAVE DRAWDOWN FOR ALL LAYERS
    SAVE BUDGET
    PRINT HEAD FOR ALL LAYERS
    PRINT BUDGET
 UBDSV1 SAVING "         STORAGE" ON UNIT  53 AT TIME STEP 60, STRESS PERIOD   2
 UBDSV2 SAVING "   CONSTANT HEAD" ON UNIT  53 AT TIME STEP 60, STRESS PERIOD   2
 UBDSV1 SAVING "FLOW RIGHT FACE " ON UNIT  53 AT TIME STEP 60, STRESS PERIOD   2
 UBDSV1 SAVING "FLOW FRONT FACE " ON UNIT  53 AT TIME STEP 60, STRESS PERIOD   2
 UBDSV1 SAVING "FLOW LOWER FACE " ON UNIT  53 AT TIME STEP 60, STRESS PERIOD   2
1
              HEAD IN LAYER   1 AT END OF TIME STEP  60 IN STRESS PERIOD    2
  ---------------------------------------------------------------------------

            1           2           3           4           5           6           7           8           9          10
 ........................................................................................................................
   1   10.000       9.967       9.904       9.765       9.467       8.875       7.802       6.037       3.433      3.1531E-03
   2   10.000       9.967       9.904       9.765       9.467       8.875       7.802       6.037       3.433      3.1531E-03
   3   10.000       9.967       9.904       9.765       9.467       8.875       7.802       6.037       3.433      3.1531E-03
   4   10.000       9.967       9.904       9.765       9.467       8.875       7.802       6.037       3.433      3.1531E-03
   5   10.000       9.967       9.904       9.765       9.467       8.875       7.802       6.037       3.433      3.1531E-03
   6   10.000       9.967       9.904       9.765       9.467       8.875       7.802       6.037       3.433      3.1531E-03
   7   10.000       9.967       9.904       9.765       9.467       8.875       7.802       6.037       3.433      3.1531E-03
   8   10.000       9.967       9.904       9.765       9.467       8.875       7.802       6.037       3.433      3.1531E-03
   9   10.000       9.967       9.904       9.765       9.467       8.875       7.802       6.037       3.433      3.1531E-03
  10   10.000       9.967       9.904       9.765       9.467       8.875       7.802       6.037       3.433      3.1531E-03
1
              HEAD IN LAYER   2 AT END OF TIME STEP  60 IN STRESS PERIOD    2
  ---------------------------------------------------------------------------

            1           2           3           4           5           6           7           8           9          10
 ........................................................................................................................
   1   10.000       9.965       9.900       9.756       9.451       8.850       7.768       5.999       3.402      7.1424E-03
   2   10.000       9.965       9.900       9.756       9.451       8.850       7.768       5.999       3.402      7.1424E-03
   3   10.000       9.965       9.900       9.756       9.451       8.850       7.768       5.999       3.402      7.1424E-03
   4   10.000       9.965       9.900       9.756       9.451       8.850       7.768       5.999       3.402      7.1424E-03
   5   10.000       9.965       9.900       9.756       9.451       8.850       7.768       5.999       3.402      7.1424E-03
   6   10.000       9.965       9.900       9.756       9.451       8.850       7.768       5.999       3.402      7.1424E-03
   7   10.000       9.965       9.900       9.756       9.451       8.850       7.768       5.999       3.402      7.1424E-03
   8   10.000       9.965       9.900       9.756       9.451       8.850       7.768       5.999       3.402      7.1424E-03
   9   10.000       9.965       9.900       9.756       9.451       8.850       7.768       5.999       3.402      7.1424E-03
  10   10.000       9.965       9.900       9.756       9.451       8.850       7.768       5.999       3.402      7.1424E-03
1
              HEAD IN LAYER   3 AT END OF TIME STEP  60 IN STRESS PERIOD    2
  ---------------------------------------------------------------------------

            1           2           3           4           5           6           7           8           9          10
 ........................................................................................................................
   1   10.000       9.964       9.897       9.749       9.439       8.831       7.740       5.966       3.371      7.9470E-03
   2   10.000       9.964       9.897       9.749       9.439       8.831       7.740       5.966       3.371      7.9470E-03
   3   10.000       9.964       9.897       9.749       9.439       8.831       7.740       5.966       3.371      7.9470E-03
   4   10.000       9.964       9.897       9.749       9.439       8.831       7.740       5.966       3.371      7.9470E-03
   5   10.000       9.964       9.897       9.749       9.439       8.831       7.740       5.966       3.371      7.9470E-03
   6   10.000       9.964       9.897       9.749       9.439       8.831       7.740       5.966       3.371      7.9470E-03
   7   10.000       9.964       9.897       9.749       9.439       8.831       7.740       5.966       3.371      7.9470E-03
   8   10.000       9.964       9.897       9.749       9.439       8.831       7.740       5.966       3.371      7.9470E-03
   9   10.000       9.964       9.897       9.749       9.439       8.831       7.740       5.966       3.371      7.9470E-03
  10   10.000       9.964       9.897       9.749       9.439       8.831       7.740       5.966       3.371      7.9470E-03
1
              HEAD IN LAYER   4 AT END OF TIME STEP  60 IN STRESS PERIOD    2
  ---------------------------------------------------------------------------

            1           2           3           4           5           6           7           8           9          10
 ........................................................................................................................
   1   10.000       9.963       9.894       9.745       9.431       8.817       7.721       5.943       3.350      8.0089E-03
   2   10.000       9.963       9.894       9.745       9.431       8.817       7.721       5.943       3.350      8.0089E-03
   3   10.000       9.963       9.894       9.745       9.431       8.817       7.721       5.943       3.350      8.0089E-03
   4   10.000       9.963       9.894       9.745       9.431       8.817       7.721       5.943       3.350      8.0089E-03
   5   10.000       9.963       9.894       9.745       9.431       8.817       7.721       5.943       3.350      8.0089E-03
   6   10.000       9.963       9.894       9.745       9.431       8.817       7.721       5.943       3.350      8.0089E-03
   7   10.000       9.963       9.894       9.745       9.431       8.817       7.721       5.943       3.350      8.0089E-03
   8   10.000       9.963       9.894       9.745       9.431       8.817       7.721       5.943       3.350      8.0089E-03
   9   10.000       9.963       9.894       9.745       9.431       8.817       7.721       5.943       3.350      8.0089E-03
  10   10.000       9.963       9.894       9.745       9.431       8.817       7.721       5.943       3.350      8.0089E-03
1
              HEAD IN LAYER   5 AT END OF TIME STEP  60 IN STRESS PERIOD    2
  ---------------------------------------------------------------------------

            1           2           3           4           5           6           7           8           9          10
 ........................................................................................................................
   1   10.000       9.963       9.893       9.743       9.427       8.811       7.712       5.932       3.340      7.9982E-03
   2   10.000       9.963       9.893       9.743       9.427       8.811       7.712       5.932       3.340      7.9982E-03
   3   10.000       9.963       9.893       9.743       9.427       8.811       7.712       5.932       3.340      7.9982E-03
   4   10.000       9.963       9.893       9.743       9.427       8.811       7.712       5.932       3.340      7.9982E-03
   5   10.000       9.963       9.893       9.743       9.427       8.811       7.712       5.932       3.340      7.9982E-03
   6   10.000       9.963       9.893       9.743       9.427       8.811       7.712       5.932       3.340      7.9982E-03
   7   10.000       9.963       9.893       9.743       9.427       8.811       7.712       5.932       3.340      7.9982E-03
   8   10.000       9.963       9.893       9.743       9.427       8.811       7.712       5.932       3.340      7.9982E-03
   9   10.000       9.963       9.893       9.743       9.427       8.811       7.712       5.932       3.340      7.9982E-03
  10   10.000       9.963       9.893       9.743       9.427       8.811       7.712       5.932       3.340      7.9982E-03

 HEAD WILL BE SAVED ON UNIT   51 AT END OF TIME STEP   60, STRESS PERIOD    2

 DRAWDOWN WILL BE SAVED ON UNIT   52 AT END OF TIME STEP   60, STRESS PERIOD    2
1
  VOLUMETRIC BUDGET FOR ENTIRE MODEL AT END OF TIME STEP   60, STRESS PERIOD   2
  ------------------------------------------------------------------------------

     CUMULATIVE VOLUMES      L**3       RATES FOR THIS TIME STEP      L**3/T
     ------------------                 ------------------------

           IN:                                      IN:
           ---                                      ---
             STORAGE =      259501.2969               STORAGE =        1691.1378
       CONSTANT HEAD =           0.0000         CONSTANT HEAD =           0.0000
               WELLS =           0.0000                 WELLS =           0.0000
     HEAD DEP BOUNDS =         302.1664       HEAD DEP BOUNDS =          21.2932

            TOTAL IN =      259803.4688              TOTAL IN =        1712.4310

          OUT:                                     OUT:
          ----                                     ----
             STORAGE =           0.0000               STORAGE =           0.0000
       CONSTANT HEAD =           0.0000         CONSTANT HEAD =           0.0000
               WELLS =           0.0000                 WELLS =           0.0000
     HEAD DEP BOUNDS =      259804.1875       HEAD DEP BOUNDS =        1712.4838

           TOTAL OUT =      259804.1875             TOTAL OUT =        1712.4838

            IN - OUT =          -0.7188              IN - OUT =      -5.2734E-02

 PERCENT DISCREPANCY =          -0.00     PERCENT DISCREPANCY =          -0.00






         TIME SUMMARY AT END OF TIME STEP   60 IN STRESS PERIOD    2
                    SECONDS     MINUTES      HOURS       DAYS        YEARS
                    -----------------------------------------------------------
   TIME STEP LENGTH  86400.      1440.0      24.000      1.0000     2.73785E-03
 STRESS PERIOD TIME 5.18400E+06  86400.      1440.0      60.000     0.16427    
         TOTAL TIME 5.27040E+06  87840.      1464.0      61.000     0.16701    
1
 
 SOLVING FOR HEAD 

 OUTPUT CONTROL FOR STRESS PERIOD    2   TIME STEP   61
    SAVE HEAD FOR ALL LAYERS
    SAVE DRAWDOWN FOR ALL LAYERS
    SAVE BUDGET
    PRINT HEAD FOR ALL LAYERS
    PRINT BUDGET
 UBDSV1 SAVING "         STORAGE" ON UNIT  53 AT TIME STEP 61, STRESS PERIOD   2
 UBDSV2 SAVING "   CONSTANT HEAD" ON UNIT  53 AT TIME STEP 61, STRESS PERIOD   2
 UBDSV1 SAVING "FLOW RIGHT FACE " ON UNIT  53 AT TIME STEP 61, STRESS PERIOD   2
 UBDSV1 SAVING "FLOW FRONT FACE " ON UNIT  53 AT TIME STEP 61, STRESS PERIOD   2
 UBDSV1 SAVING "FLOW LOWER FACE " ON UNIT  53 AT TIME STEP 61, STRESS PERIOD   2
1
              HEAD IN LAYER   1 AT END OF TIME STEP  61 IN STRESS PERIOD    2
  ---------------------------------------------------------------------------

            1           2           3           4           5           6           7           8           9          10
 ........................................................................................................................
   1   10.000       9.965       9.899       9.756       9.450       8.849       7.767       5.999       3.405      3.1254E-03
   2   10.000       9.965       9.899       9.756       9.450       8.849       7.767       5.999       3.405      3.1254E-03
   3   10.000       9.965       9.899       9.756       9.450       8.849       7.767       5.999       3.405      3.1254E-03
   4   10.000       9.965       9.899       9.756       9.450       8.849       7.767       5.999       3.405      3.1254E-03
   5   10.000       9.965       9.899       9.756       9.450       8.849       7.767       5.999       3.405      3.1254E-03
   6   10.000       9.965       9.899       9.756       9.450       8.849       7.767       5.999       3.405      3.1254E-03
   7   10.000       9.965       9.899       9.756       9.450       8.849       7.767       5.999       3.405      3.1254E-03
   8   10.000       9.965       9.899       9.756       9.450       8.849       7.767       5.999       3.405      3.1254E-03
   9   10.000       9.965       9.899       9.756       9.450       8.849       7.767       5.999       3.405      3.1254E-03
  10   10.000       9.965       9.899       9.756       9.450       8.849       7.767       5.999       3.405      3.1254E-03
1
              HEAD IN LAYER   2 AT END OF TIME STEP  61 IN STRESS PERIOD    2
  ---------------------------------------------------------------------------

            1           2           3           4           5           6           7           8           9          10
 ........................................................................................................................
   1   10.000       9.963       9.895       9.747       9.434       8.824       7.733       5.962       3.375      7.0851E-03
   2   10.000       9.963       9.895       9.747       9.434       8.824       7.733       5.962       3.375      7.0851E-03
   3   10.000       9.963       9.895       9.747       9.434       8.824       7.733       5.962       3.375      7.0851E-03
   4   10.000       9.963       9.895       9.747       9.434       8.824       7.733       5.962       3.375      7.0851E-03
   5   10.000       9.963       9.895       9.747       9.434       8.824       7.733       5.962       3.375      7.0851E-03
   6   10.000       9.963       9.895       9.747       9.434       8.824       7.733       5.962       3.375      7.0851E-03
   7   10.000       9.963       9.895       9.747       9.434       8.824       7.733       5.962       3.375      7.0851E-03
   8   10.000       9.963       9.895       9.747       9.434       8.824       7.733       5.962       3.375      7.0851E-03
   9   10.000       9.963       9.895       9.747       9.434       8.824       7.733       5.962       3.375      7.0851E-03
  10   10.000       9.963       9.895       9.747       9.434       8.824       7.733       5.962       3.375      7.0851E-03
1
              HEAD IN LAYER   3 AT END OF TIME STEP  61 IN STRESS PERIOD    2
  ---------------------------------------------------------------------------

            1           2           3           4           5           6           7           8           9          10
 ........................................................................................................................
   1   10.000       9.962       9.892       9.740       9.422       8.804       7.705       5.929       3.344      7.8845E-03
   2   10.000       9.962       9.892       9.740       9.422       8.804       7.705       5.929       3.344      7.8845E-03
   3   10.000       9.962       9.892       9.740       9.422       8.804       7.705       5.929       3.344      7.8845E-03
   4   10.000       9.962       9.892       9.740       9.422       8.804       7.705       5.929       3.344      7.8845E-03
   5   10.000       9.962       9.892       9.740       9.422       8.804       7.705       5.929       3.344      7.8845E-03
   6   10.000       9.962       9.892       9.740       9.422       8.804       7.705       5.929       3.344      7.8845E-03
   7   10.000       9.962       9.892       9.740       9.422       8.804       7.705       5.929       3.344      7.8845E-03
   8   10.000       9.962       9.892       9.740       9.422       8.804       7.705       5.929       3.344      7.8845E-03
   9   10.000       9.962       9.892       9.740       9.422       8.804       7.705       5.929       3.344      7.8845E-03
  10   10.000       9.962       9.892       9.740       9.422       8.804       7.705       5.929       3.344      7.8845E-03
1
              HEAD IN LAYER   4 AT END OF TIME STEP  61 IN STRESS PERIOD    2
  ---------------------------------------------------------------------------

            1           2           3           4           5           6           7           8           9          10
 ........................................................................................................................
   1   10.000       9.961       9.889       9.735       9.414       8.791       7.687       5.907       3.324      7.9465E-03
   2   10.000       9.961       9.889       9.735       9.414       8.791       7.687       5.907       3.324      7.9465E-03
   3   10.000       9.961       9.889       9.735       9.414       8.791       7.687       5.907       3.324      7.9465E-03
   4   10.000       9.961       9.889       9.735       9.414       8.791       7.687       5.907       3.324      7.9465E-03
   5   10.000       9.961       9.889       9.735       9.414       8.791       7.687       5.907       3.324      7.9465E-03
   6   10.000       9.961       9.889       9.735       9.414       8.791       7.687       5.907       3.324      7.9465E-03
   7   10.000       9.961       9.889       9.735       9.414       8.791       7.687       5.907       3.324      7.9465E-03
   8   10.000       9.961       9.889       9.735       9.414       8.791       7.687       5.907       3.324      7.9465E-03
   9   10.000       9.961       9.889       9.735       9.414       8.791       7.687       5.907       3.324      7.9465E-03
  10   10.000       9.961       9.889       9.735       9.414       8.791       7.687       5.907       3.324      7.9465E-03
1
              HEAD IN LAYER   5 AT END OF TIME STEP  61 IN STRESS PERIOD    2
  ---------------------------------------------------------------------------

            1           2           3           4           5           6           7           8           9          10
 ........................................................................................................................
   1   10.000       9.961       9.888       9.733       9.410       8.785       7.678       5.896       3.314      7.9362E-03
   2   10.000       9.961       9.888       9.733       9.410       8.785       7.678       5.896       3.314      7.9362E-03
   3   10.000       9.961       9.888       9.733       9.410       8.785       7.678       5.896       3.314      7.9362E-03
   4   10.000       9.961       9.888       9.733       9.410       8.785       7.678       5.896       3.314      7.9362E-03
   5   10.000       9.961       9.888       9.733       9.410       8.785       7.678       5.896       3.314      7.9362E-03
   6   10.000       9.961       9.888       9.733       9.410       8.785       7.678       5.896       3.314      7.9362E-03
   7   10.000       9.961       9.888       9.733       9.410       8.785       7.678       5.896       3.314      7.9362E-03
   8   10.000       9.961       9.888       9.733       9.410       8.785       7.678       5.896       3.314      7.9362E-03
   9   10.000       9.961       9.888       9.733       9.410       8.785       7.678       5.896       3.314      7.9362E-03
  10   10.000       9.961       9.888       9.733       9.410       8.785       7.678       5.896       3.314      7.9362E-03

 HEAD WILL BE SAVED ON UNIT   51 AT END OF TIME STEP   61, STRESS PERIOD    2

 DRAWDOWN WILL BE SAVED ON UNIT   52 AT END OF TIME STEP   61, STRESS PERIOD    2
1
  VOLUMETRIC BUDGET FOR ENTIRE MODEL AT END OF TIME STEP   61, STRESS PERIOD   2
  ------------------------------------------------------------------------------

     CUMULATIVE VOLUMES      L**3       RATES FOR THIS TIME STEP      L**3/T
     ------------------                 ------------------------

           IN:                                      IN:
           ---                                      ---
             STORAGE =      261177.7031               STORAGE =        1676.4119
       CONSTANT HEAD =           0.0000         CONSTANT HEAD =           0.0000
               WELLS =           0.0000                 WELLS =           0.0000
     HEAD DEP BOUNDS =         324.5669       HEAD DEP BOUNDS =          22.4005

            TOTAL IN =      261502.2656              TOTAL IN =        1698.8124

          OUT:                                     OUT:
          ----                                     ----
             STORAGE =           0.0000               STORAGE =           0.0000
       CONSTANT HEAD =           0.0000         CONSTANT HEAD =           0.0000
               WELLS =           0.0000                 WELLS =           0.0000
     HEAD DEP BOUNDS =      261503.0781       HEAD DEP BOUNDS =        1698.8845

           TOTAL OUT =      261503.0781             TOTAL OUT =        1698.8845

            IN - OUT =          -0.8125              IN - OUT =      -7.2144E-02

 PERCENT DISCREPANCY =          -0.00     PERCENT DISCREPANCY =          -0.00






         TIME SUMMARY AT END OF TIME STEP   61 IN STRESS PERIOD    2
                    SECONDS     MINUTES      HOURS       DAYS        YEARS
                    -----------------------------------------------------------
   TIME STEP LENGTH  86400.      1440.0      24.000      1.0000     2.73785E-03
 STRESS PERIOD TIME 5.27040E+06  87840.      1464.0      61.000     0.16701    
         TOTAL TIME 5.35680E+06  89280.      1488.0      62.000     0.16975    
1
 
 SOLVING FOR HEAD 

 OUTPUT CONTROL FOR STRESS PERIOD    2   TIME STEP   62
    SAVE HEAD FOR ALL LAYERS
    SAVE DRAWDOWN FOR ALL LAYERS
    SAVE BUDGET
    PRINT HEAD FOR ALL LAYERS
    PRINT BUDGET
 UBDSV1 SAVING "         STORAGE" ON UNIT  53 AT TIME STEP 62, STRESS PERIOD   2
 UBDSV2 SAVING "   CONSTANT HEAD" ON UNIT  53 AT TIME STEP 62, STRESS PERIOD   2
 UBDSV1 SAVING "FLOW RIGHT FACE " ON UNIT  53 AT TIME STEP 62, STRESS PERIOD   2
 UBDSV1 SAVING "FLOW FRONT FACE " ON UNIT  53 AT TIME STEP 62, STRESS PERIOD   2
 UBDSV1 SAVING "FLOW LOWER FACE " ON UNIT  53 AT TIME STEP 62, STRESS PERIOD   2
1
              HEAD IN LAYER   1 AT END OF TIME STEP  62 IN STRESS PERIOD    2
  ---------------------------------------------------------------------------

            1           2           3           4           5           6           7           8           9          10
 ........................................................................................................................
   1   10.000       9.963       9.895       9.746       9.433       8.823       7.732       5.961       3.378      3.0983E-03
   2   10.000       9.963       9.895       9.746       9.433       8.823       7.732       5.961       3.378      3.0983E-03
   3   10.000       9.963       9.895       9.746       9.433       8.823       7.732       5.961       3.378      3.0983E-03
   4   10.000       9.963       9.895       9.746       9.433       8.823       7.732       5.961       3.378      3.0983E-03
   5   10.000       9.963       9.895       9.746       9.433       8.823       7.732       5.961       3.378      3.0983E-03
   6   10.000       9.963       9.895       9.746       9.433       8.823       7.732       5.961       3.378      3.0983E-03
   7   10.000       9.963       9.895       9.746       9.433       8.823       7.732       5.961       3.378      3.0983E-03
   8   10.000       9.963       9.895       9.746       9.433       8.823       7.732       5.961       3.378      3.0983E-03
   9   10.000       9.963       9.895       9.746       9.433       8.823       7.732       5.961       3.378      3.0983E-03
  10   10.000       9.963       9.895       9.746       9.433       8.823       7.732       5.961       3.378      3.0983E-03
1
              HEAD IN LAYER   2 AT END OF TIME STEP  62 IN STRESS PERIOD    2
  ---------------------------------------------------------------------------

            1           2           3           4           5           6           7           8           9          10
 ........................................................................................................................
   1   10.000       9.961       9.890       9.737       9.417       8.798       7.699       5.925       3.348      7.0290E-03
   2   10.000       9.961       9.890       9.737       9.417       8.798       7.699       5.925       3.348      7.0290E-03
   3   10.000       9.961       9.890       9.737       9.417       8.798       7.699       5.925       3.348      7.0290E-03
   4   10.000       9.961       9.890       9.737       9.417       8.798       7.699       5.925       3.348      7.0290E-03
   5   10.000       9.961       9.890       9.737       9.417       8.798       7.699       5.925       3.348      7.0290E-03
   6   10.000       9.961       9.890       9.737       9.417       8.798       7.699       5.925       3.348      7.0290E-03
   7   10.000       9.961       9.890       9.737       9.417       8.798       7.699       5.925       3.348      7.0290E-03
   8   10.000       9.961       9.890       9.737       9.417       8.798       7.699       5.925       3.348      7.0290E-03
   9   10.000       9.961       9.890       9.737       9.417       8.798       7.699       5.925       3.348      7.0290E-03
  10   10.000       9.961       9.890       9.737       9.417       8.798       7.699       5.925       3.348      7.0290E-03
1
              HEAD IN LAYER   3 AT END OF TIME STEP  62 IN STRESS PERIOD    2
  ---------------------------------------------------------------------------

            1           2           3           4           5           6           7           8           9          10
 ........................................................................................................................
   1   10.000       9.960       9.887       9.730       9.405       8.778       7.671       5.892       3.318      7.8233E-03
   2   10.000       9.960       9.887       9.730       9.405       8.778       7.671       5.892       3.318      7.8233E-03
   3   10.000       9.960       9.887       9.730       9.405       8.778       7.671       5.892       3.318      7.8233E-03
   4   10.000       9.960       9.887       9.730       9.405       8.778       7.671       5.892       3.318      7.8233E-03
   5   10.000       9.960       9.887       9.730       9.405       8.778       7.671       5.892       3.318      7.8233E-03
   6   10.000       9.960       9.887       9.730       9.405       8.778       7.671       5.892       3.318      7.8233E-03
   7   10.000       9.960       9.887       9.730       9.405       8.778       7.671       5.892       3.318      7.8233E-03
   8   10.000       9.960       9.887       9.730       9.405       8.778       7.671       5.892       3.318      7.8233E-03
   9   10.000       9.960       9.887       9.730       9.405       8.778       7.671       5.892       3.318      7.8233E-03
  10   10.000       9.960       9.887       9.730       9.405       8.778       7.671       5.892       3.318      7.8233E-03
1
              HEAD IN LAYER   4 AT END OF TIME STEP  62 IN STRESS PERIOD    2
  ---------------------------------------------------------------------------

            1           2           3           4           5           6           7           8           9          10
 ........................................................................................................................
   1   10.000       9.959       9.885       9.725       9.397       8.765       7.653       5.871       3.298      7.8856E-03
   2   10.000       9.959       9.885       9.725       9.397       8.765       7.653       5.871       3.298      7.8856E-03
   3   10.000       9.959       9.885       9.725       9.397       8.765       7.653       5.871       3.298      7.8856E-03
   4   10.000       9.959       9.885       9.725       9.397       8.765       7.653       5.871       3.298      7.8856E-03
   5   10.000       9.959       9.885       9.725       9.397       8.765       7.653       5.871       3.298      7.8856E-03
   6   10.000       9.959       9.885       9.725       9.397       8.765       7.653       5.871       3.298      7.8856E-03
   7   10.000       9.959       9.885       9.725       9.397       8.765       7.653       5.871       3.298      7.8856E-03
   8   10.000       9.959       9.885       9.725       9.397       8.765       7.653       5.871       3.298      7.8856E-03
   9   10.000       9.959       9.885       9.725       9.397       8.765       7.653       5.871       3.298      7.8856E-03
  10   10.000       9.959       9.885       9.725       9.397       8.765       7.653       5.871       3.298      7.8856E-03
1
              HEAD IN LAYER   5 AT END OF TIME STEP  62 IN STRESS PERIOD    2
  ---------------------------------------------------------------------------

            1           2           3           4           5           6           7           8           9          10
 ........................................................................................................................
   1   10.000       9.959       9.883       9.723       9.392       8.759       7.644       5.860       3.289      7.8756E-03
   2   10.000       9.959       9.883       9.723       9.392       8.759       7.644       5.860       3.289      7.8756E-03
   3   10.000       9.959       9.883       9.723       9.392       8.759       7.644       5.860       3.289      7.8756E-03
   4   10.000       9.959       9.883       9.723       9.392       8.759       7.644       5.860       3.289      7.8756E-03
   5   10.000       9.959       9.883       9.723       9.392       8.759       7.644       5.860       3.289      7.8756E-03
   6   10.000       9.959       9.883       9.723       9.392       8.759       7.644       5.860       3.289      7.8756E-03
   7   10.000       9.959       9.883       9.723       9.392       8.759       7.644       5.860       3.289      7.8756E-03
   8   10.000       9.959       9.883       9.723       9.392       8.759       7.644       5.860       3.289      7.8756E-03
   9   10.000       9.959       9.883       9.723       9.392       8.759       7.644       5.860       3.289      7.8756E-03
  10   10.000       9.959       9.883       9.723       9.392       8.759       7.644       5.860       3.289      7.8756E-03

 HEAD WILL BE SAVED ON UNIT   51 AT END OF TIME STEP   62, STRESS PERIOD    2

 DRAWDOWN WILL BE SAVED ON UNIT   52 AT END OF TIME STEP   62, STRESS PERIOD    2
1
  VOLUMETRIC BUDGET FOR ENTIRE MODEL AT END OF TIME STEP   62, STRESS PERIOD   2
  ------------------------------------------------------------------------------

     CUMULATIVE VOLUMES      L**3       RATES FOR THIS TIME STEP      L**3/T
     ------------------                 ------------------------

           IN:                                      IN:
           ---                                      ---
             STORAGE =      262839.6562               STORAGE =        1661.9509
       CONSTANT HEAD =           0.0000         CONSTANT HEAD =           0.0000
               WELLS =           0.0000                 WELLS =           0.0000
     HEAD DEP BOUNDS =         348.1743       HEAD DEP BOUNDS =          23.6074

            TOTAL IN =      263187.8438              TOTAL IN =        1685.5583

          OUT:                                     OUT:
          ----                                     ----
             STORAGE =           0.0000               STORAGE =           0.0000
       CONSTANT HEAD =           0.0000         CONSTANT HEAD =           0.0000
               WELLS =           0.0000                 WELLS =           0.0000
     HEAD DEP BOUNDS =      263188.6562       HEAD DEP BOUNDS =        1685.5891

           TOTAL OUT =      263188.6562             TOTAL OUT =        1685.5891

            IN - OUT =          -0.8125              IN - OUT =      -3.0762E-02

 PERCENT DISCREPANCY =          -0.00     PERCENT DISCREPANCY =          -0.00






         TIME SUMMARY AT END OF TIME STEP   62 IN STRESS PERIOD    2
                    SECONDS     MINUTES      HOURS       DAYS        YEARS
                    -----------------------------------------------------------
   TIME STEP LENGTH  86400.      1440.0      24.000      1.0000     2.73785E-03
 STRESS PERIOD TIME 5.35680E+06  89280.      1488.0      62.000     0.16975    
         TOTAL TIME 5.44320E+06  90720.      1512.0      63.000     0.17248    
1
 
 SOLVING FOR HEAD 

 OUTPUT CONTROL FOR STRESS PERIOD    2   TIME STEP   63
    SAVE HEAD FOR ALL LAYERS
    SAVE DRAWDOWN FOR ALL LAYERS
    SAVE BUDGET
    PRINT HEAD FOR ALL LAYERS
    PRINT BUDGET
 UBDSV1 SAVING "         STORAGE" ON UNIT  53 AT TIME STEP 63, STRESS PERIOD   2
 UBDSV2 SAVING "   CONSTANT HEAD" ON UNIT  53 AT TIME STEP 63, STRESS PERIOD   2
 UBDSV1 SAVING "FLOW RIGHT FACE " ON UNIT  53 AT TIME STEP 63, STRESS PERIOD   2
 UBDSV1 SAVING "FLOW FRONT FACE " ON UNIT  53 AT TIME STEP 63, STRESS PERIOD   2
 UBDSV1 SAVING "FLOW LOWER FACE " ON UNIT  53 AT TIME STEP 63, STRESS PERIOD   2
1
              HEAD IN LAYER   1 AT END OF TIME STEP  63 IN STRESS PERIOD    2
  ---------------------------------------------------------------------------

            1           2           3           4           5           6           7           8           9          10
 ........................................................................................................................
   1   10.000       9.961       9.890       9.736       9.416       8.797       7.697       5.924       3.351      3.0720E-03
   2   10.000       9.961       9.890       9.736       9.416       8.797       7.697       5.924       3.351      3.0720E-03
   3   10.000       9.961       9.890       9.736       9.416       8.797       7.697       5.924       3.351      3.0720E-03
   4   10.000       9.961       9.890       9.736       9.416       8.797       7.697       5.924       3.351      3.0720E-03
   5   10.000       9.961       9.890       9.736       9.416       8.797       7.697       5.924       3.351      3.0720E-03
   6   10.000       9.961       9.890       9.736       9.416       8.797       7.697       5.924       3.351      3.0720E-03
   7   10.000       9.961       9.890       9.736       9.416       8.797       7.697       5.924       3.351      3.0720E-03
   8   10.000       9.961       9.890       9.736       9.416       8.797       7.697       5.924       3.351      3.0720E-03
   9   10.000       9.961       9.890       9.736       9.416       8.797       7.697       5.924       3.351      3.0720E-03
  10   10.000       9.961       9.890       9.736       9.416       8.797       7.697       5.924       3.351      3.0720E-03
1
              HEAD IN LAYER   2 AT END OF TIME STEP  63 IN STRESS PERIOD    2
  ---------------------------------------------------------------------------

            1           2           3           4           5           6           7           8           9          10
 ........................................................................................................................
   1   10.000       9.959       9.885       9.727       9.400       8.772       7.664       5.889       3.322      6.9742E-03
   2   10.000       9.959       9.885       9.727       9.400       8.772       7.664       5.889       3.322      6.9742E-03
   3   10.000       9.959       9.885       9.727       9.400       8.772       7.664       5.889       3.322      6.9742E-03
   4   10.000       9.959       9.885       9.727       9.400       8.772       7.664       5.889       3.322      6.9742E-03
   5   10.000       9.959       9.885       9.727       9.400       8.772       7.664       5.889       3.322      6.9742E-03
   6   10.000       9.959       9.885       9.727       9.400       8.772       7.664       5.889       3.322      6.9742E-03
   7   10.000       9.959       9.885       9.727       9.400       8.772       7.664       5.889       3.322      6.9742E-03
   8   10.000       9.959       9.885       9.727       9.400       8.772       7.664       5.889       3.322      6.9742E-03
   9   10.000       9.959       9.885       9.727       9.400       8.772       7.664       5.889       3.322      6.9742E-03
  10   10.000       9.959       9.885       9.727       9.400       8.772       7.664       5.889       3.322      6.9742E-03
1
              HEAD IN LAYER   3 AT END OF TIME STEP  63 IN STRESS PERIOD    2
  ---------------------------------------------------------------------------

            1           2           3           4           5           6           7           8           9          10
 ........................................................................................................................
   1   10.000       9.958       9.882       9.720       9.388       8.752       7.637       5.857       3.293      7.7636E-03
   2   10.000       9.958       9.882       9.720       9.388       8.752       7.637       5.857       3.293      7.7636E-03
   3   10.000       9.958       9.882       9.720       9.388       8.752       7.637       5.857       3.293      7.7636E-03
   4   10.000       9.958       9.882       9.720       9.388       8.752       7.637       5.857       3.293      7.7636E-03
   5   10.000       9.958       9.882       9.720       9.388       8.752       7.637       5.857       3.293      7.7636E-03
   6   10.000       9.958       9.882       9.720       9.388       8.752       7.637       5.857       3.293      7.7636E-03
   7   10.000       9.958       9.882       9.720       9.388       8.752       7.637       5.857       3.293      7.7636E-03
   8   10.000       9.958       9.882       9.720       9.388       8.752       7.637       5.857       3.293      7.7636E-03
   9   10.000       9.958       9.882       9.720       9.388       8.752       7.637       5.857       3.293      7.7636E-03
  10   10.000       9.958       9.882       9.720       9.388       8.752       7.637       5.857       3.293      7.7636E-03
1
              HEAD IN LAYER   4 AT END OF TIME STEP  63 IN STRESS PERIOD    2
  ---------------------------------------------------------------------------

            1           2           3           4           5           6           7           8           9          10
 ........................................................................................................................
   1   10.000       9.957       9.879       9.716       9.379       8.739       7.619       5.835       3.274      7.8259E-03
   2   10.000       9.957       9.879       9.716       9.379       8.739       7.619       5.835       3.274      7.8259E-03
   3   10.000       9.957       9.879       9.716       9.379       8.739       7.619       5.835       3.274      7.8259E-03
   4   10.000       9.957       9.879       9.716       9.379       8.739       7.619       5.835       3.274      7.8259E-03
   5   10.000       9.957       9.879       9.716       9.379       8.739       7.619       5.835       3.274      7.8259E-03
   6   10.000       9.957       9.879       9.716       9.379       8.739       7.619       5.835       3.274      7.8259E-03
   7   10.000       9.957       9.879       9.716       9.379       8.739       7.619       5.835       3.274      7.8259E-03
   8   10.000       9.957       9.879       9.716       9.379       8.739       7.619       5.835       3.274      7.8259E-03
   9   10.000       9.957       9.879       9.716       9.379       8.739       7.619       5.835       3.274      7.8259E-03
  10   10.000       9.957       9.879       9.716       9.379       8.739       7.619       5.835       3.274      7.8259E-03
1
              HEAD IN LAYER   5 AT END OF TIME STEP  63 IN STRESS PERIOD    2
  ---------------------------------------------------------------------------

            1           2           3           4           5           6           7           8           9          10
 ........................................................................................................................
   1   10.000       9.957       9.878       9.713       9.375       8.733       7.610       5.825       3.264      7.8164E-03
   2   10.000       9.957       9.878       9.713       9.375       8.733       7.610       5.825       3.264      7.8164E-03
   3   10.000       9.957       9.878       9.713       9.375       8.733       7.610       5.825       3.264      7.8164E-03
   4   10.000       9.957       9.878       9.713       9.375       8.733       7.610       5.825       3.264      7.8164E-03
   5   10.000       9.957       9.878       9.713       9.375       8.733       7.610       5.825       3.264      7.8164E-03
   6   10.000       9.957       9.878       9.713       9.375       8.733       7.610       5.825       3.264      7.8164E-03
   7   10.000       9.957       9.878       9.713       9.375       8.733       7.610       5.825       3.264      7.8164E-03
   8   10.000       9.957       9.878       9.713       9.375       8.733       7.610       5.825       3.264      7.8164E-03
   9   10.000       9.957       9.878       9.713       9.375       8.733       7.610       5.825       3.264      7.8164E-03
  10   10.000       9.957       9.878       9.713       9.375       8.733       7.610       5.825       3.264      7.8164E-03

 HEAD WILL BE SAVED ON UNIT   51 AT END OF TIME STEP   63, STRESS PERIOD    2

 DRAWDOWN WILL BE SAVED ON UNIT   52 AT END OF TIME STEP   63, STRESS PERIOD    2
1
  VOLUMETRIC BUDGET FOR ENTIRE MODEL AT END OF TIME STEP   63, STRESS PERIOD   2
  ------------------------------------------------------------------------------

     CUMULATIVE VOLUMES      L**3       RATES FOR THIS TIME STEP      L**3/T
     ------------------                 ------------------------

           IN:                                      IN:
           ---                                      ---
             STORAGE =      264487.4375               STORAGE =        1647.7700
       CONSTANT HEAD =           0.0000         CONSTANT HEAD =           0.0000
               WELLS =           0.0000                 WELLS =           0.0000
     HEAD DEP BOUNDS =         372.9521       HEAD DEP BOUNDS =          24.7778

            TOTAL IN =      264860.3750              TOTAL IN =        1672.5479

          OUT:                                     OUT:
          ----                                     ----
             STORAGE =           0.0000               STORAGE =           0.0000
       CONSTANT HEAD =           0.0000         CONSTANT HEAD =           0.0000
               WELLS =           0.0000                 WELLS =           0.0000
     HEAD DEP BOUNDS =      264861.2500       HEAD DEP BOUNDS =        1672.6056

           TOTAL OUT =      264861.2500             TOTAL OUT =        1672.6056

            IN - OUT =          -0.8750              IN - OUT =      -5.7739E-02

 PERCENT DISCREPANCY =          -0.00     PERCENT DISCREPANCY =          -0.00






         TIME SUMMARY AT END OF TIME STEP   63 IN STRESS PERIOD    2
                    SECONDS     MINUTES      HOURS       DAYS        YEARS
                    -----------------------------------------------------------
   TIME STEP LENGTH  86400.      1440.0      24.000      1.0000     2.73785E-03
 STRESS PERIOD TIME 5.44320E+06  90720.      1512.0      63.000     0.17248    
         TOTAL TIME 5.52960E+06  92160.      1536.0      64.000     0.17522    
1
 
 SOLVING FOR HEAD 

 OUTPUT CONTROL FOR STRESS PERIOD    2   TIME STEP   64
    SAVE HEAD FOR ALL LAYERS
    SAVE DRAWDOWN FOR ALL LAYERS
    SAVE BUDGET
    PRINT HEAD FOR ALL LAYERS
    PRINT BUDGET
 UBDSV1 SAVING "         STORAGE" ON UNIT  53 AT TIME STEP 64, STRESS PERIOD   2
 UBDSV2 SAVING "   CONSTANT HEAD" ON UNIT  53 AT TIME STEP 64, STRESS PERIOD   2
 UBDSV1 SAVING "FLOW RIGHT FACE " ON UNIT  53 AT TIME STEP 64, STRESS PERIOD   2
 UBDSV1 SAVING "FLOW FRONT FACE " ON UNIT  53 AT TIME STEP 64, STRESS PERIOD   2
 UBDSV1 SAVING "FLOW LOWER FACE " ON UNIT  53 AT TIME STEP 64, STRESS PERIOD   2
1
              HEAD IN LAYER   1 AT END OF TIME STEP  64 IN STRESS PERIOD    2
  ---------------------------------------------------------------------------

            1           2           3           4           5           6           7           8           9          10
 ........................................................................................................................
   1   10.000       9.959       9.885       9.727       9.399       8.771       7.663       5.888       3.325      3.0463E-03
   2   10.000       9.959       9.885       9.727       9.399       8.771       7.663       5.888       3.325      3.0463E-03
   3   10.000       9.959       9.885       9.727       9.399       8.771       7.663       5.888       3.325      3.0463E-03
   4   10.000       9.959       9.885       9.727       9.399       8.771       7.663       5.888       3.325      3.0463E-03
   5   10.000       9.959       9.885       9.727       9.399       8.771       7.663       5.888       3.325      3.0463E-03
   6   10.000       9.959       9.885       9.727       9.399       8.771       7.663       5.888       3.325      3.0463E-03
   7   10.000       9.959       9.885       9.727       9.399       8.771       7.663       5.888       3.325      3.0463E-03
   8   10.000       9.959       9.885       9.727       9.399       8.771       7.663       5.888       3.325      3.0463E-03
   9   10.000       9.959       9.885       9.727       9.399       8.771       7.663       5.888       3.325      3.0463E-03
  10   10.000       9.959       9.885       9.727       9.399       8.771       7.663       5.888       3.325      3.0463E-03
1
              HEAD IN LAYER   2 AT END OF TIME STEP  64 IN STRESS PERIOD    2
  ---------------------------------------------------------------------------

            1           2           3           4           5           6           7           8           9          10
 ........................................................................................................................
   1   10.000       9.957       9.880       9.717       9.383       8.746       7.631       5.853       3.297      6.9207E-03
   2   10.000       9.957       9.880       9.717       9.383       8.746       7.631       5.853       3.297      6.9207E-03
   3   10.000       9.957       9.880       9.717       9.383       8.746       7.631       5.853       3.297      6.9207E-03
   4   10.000       9.957       9.880       9.717       9.383       8.746       7.631       5.853       3.297      6.9207E-03
   5   10.000       9.957       9.880       9.717       9.383       8.746       7.631       5.853       3.297      6.9207E-03
   6   10.000       9.957       9.880       9.717       9.383       8.746       7.631       5.853       3.297      6.9207E-03
   7   10.000       9.957       9.880       9.717       9.383       8.746       7.631       5.853       3.297      6.9207E-03
   8   10.000       9.957       9.880       9.717       9.383       8.746       7.631       5.853       3.297      6.9207E-03
   9   10.000       9.957       9.880       9.717       9.383       8.746       7.631       5.853       3.297      6.9207E-03
  10   10.000       9.957       9.880       9.717       9.383       8.746       7.631       5.853       3.297      6.9207E-03
1
              HEAD IN LAYER   3 AT END OF TIME STEP  64 IN STRESS PERIOD    2
  ---------------------------------------------------------------------------

            1           2           3           4           5           6           7           8           9          10
 ........................................................................................................................
   1   10.000       9.956       9.877       9.710       9.371       8.726       7.604       5.822       3.268      7.7051E-03
   2   10.000       9.956       9.877       9.710       9.371       8.726       7.604       5.822       3.268      7.7051E-03
   3   10.000       9.956       9.877       9.710       9.371       8.726       7.604       5.822       3.268      7.7051E-03
   4   10.000       9.956       9.877       9.710       9.371       8.726       7.604       5.822       3.268      7.7051E-03
   5   10.000       9.956       9.877       9.710       9.371       8.726       7.604       5.822       3.268      7.7051E-03
   6   10.000       9.956       9.877       9.710       9.371       8.726       7.604       5.822       3.268      7.7051E-03
   7   10.000       9.956       9.877       9.710       9.371       8.726       7.604       5.822       3.268      7.7051E-03
   8   10.000       9.956       9.877       9.710       9.371       8.726       7.604       5.822       3.268      7.7051E-03
   9   10.000       9.956       9.877       9.710       9.371       8.726       7.604       5.822       3.268      7.7051E-03
  10   10.000       9.956       9.877       9.710       9.371       8.726       7.604       5.822       3.268      7.7051E-03
1
              HEAD IN LAYER   4 AT END OF TIME STEP  64 IN STRESS PERIOD    2
  ---------------------------------------------------------------------------

            1           2           3           4           5           6           7           8           9          10
 ........................................................................................................................
   1   10.000       9.955       9.874       9.705       9.362       8.713       7.586       5.801       3.249      7.7676E-03
   2   10.000       9.955       9.874       9.705       9.362       8.713       7.586       5.801       3.249      7.7676E-03
   3   10.000       9.955       9.874       9.705       9.362       8.713       7.586       5.801       3.249      7.7676E-03
   4   10.000       9.955       9.874       9.705       9.362       8.713       7.586       5.801       3.249      7.7676E-03
   5   10.000       9.955       9.874       9.705       9.362       8.713       7.586       5.801       3.249      7.7676E-03
   6   10.000       9.955       9.874       9.705       9.362       8.713       7.586       5.801       3.249      7.7676E-03
   7   10.000       9.955       9.874       9.705       9.362       8.713       7.586       5.801       3.249      7.7676E-03
   8   10.000       9.955       9.874       9.705       9.362       8.713       7.586       5.801       3.249      7.7676E-03
   9   10.000       9.955       9.874       9.705       9.362       8.713       7.586       5.801       3.249      7.7676E-03
  10   10.000       9.955       9.874       9.705       9.362       8.713       7.586       5.801       3.249      7.7676E-03
1
              HEAD IN LAYER   5 AT END OF TIME STEP  64 IN STRESS PERIOD    2
  ---------------------------------------------------------------------------

            1           2           3           4           5           6           7           8           9          10
 ........................................................................................................................
   1   10.000       9.954       9.873       9.703       9.358       8.707       7.577       5.790       3.240      7.7584E-03
   2   10.000       9.954       9.873       9.703       9.358       8.707       7.577       5.790       3.240      7.7584E-03
   3   10.000       9.954       9.873       9.703       9.358       8.707       7.577       5.790       3.240      7.7584E-03
   4   10.000       9.954       9.873       9.703       9.358       8.707       7.577       5.790       3.240      7.7584E-03
   5   10.000       9.954       9.873       9.703       9.358       8.707       7.577       5.790       3.240      7.7584E-03
   6   10.000       9.954       9.873       9.703       9.358       8.707       7.577       5.790       3.240      7.7584E-03
   7   10.000       9.954       9.873       9.703       9.358       8.707       7.577       5.790       3.240      7.7584E-03
   8   10.000       9.954       9.873       9.703       9.358       8.707       7.577       5.790       3.240      7.7584E-03
   9   10.000       9.954       9.873       9.703       9.358       8.707       7.577       5.790       3.240      7.7584E-03
  10   10.000       9.954       9.873       9.703       9.358       8.707       7.577       5.790       3.240      7.7584E-03

 HEAD WILL BE SAVED ON UNIT   51 AT END OF TIME STEP   64, STRESS PERIOD    2

 DRAWDOWN WILL BE SAVED ON UNIT   52 AT END OF TIME STEP   64, STRESS PERIOD    2
1
  VOLUMETRIC BUDGET FOR ENTIRE MODEL AT END OF TIME STEP   64, STRESS PERIOD   2
  ------------------------------------------------------------------------------

     CUMULATIVE VOLUMES      L**3       RATES FOR THIS TIME STEP      L**3/T
     ------------------                 ------------------------

           IN:                                      IN:
           ---                                      ---
             STORAGE =      266121.2812               STORAGE =        1633.8391
       CONSTANT HEAD =           0.0000         CONSTANT HEAD =           0.0000
               WELLS =           0.0000                 WELLS =           0.0000
     HEAD DEP BOUNDS =         398.9996       HEAD DEP BOUNDS =          26.0474

            TOTAL IN =      266520.2812              TOTAL IN =        1659.8865

          OUT:                                     OUT:
          ----                                     ----
             STORAGE =           0.0000               STORAGE =           0.0000
       CONSTANT HEAD =           0.0000         CONSTANT HEAD =           0.0000
               WELLS =           0.0000                 WELLS =           0.0000
     HEAD DEP BOUNDS =      266521.1562       HEAD DEP BOUNDS =        1659.9047

           TOTAL OUT =      266521.1562             TOTAL OUT =        1659.9047

            IN - OUT =          -0.8750              IN - OUT =      -1.8188E-02

 PERCENT DISCREPANCY =          -0.00     PERCENT DISCREPANCY =          -0.00






         TIME SUMMARY AT END OF TIME STEP   64 IN STRESS PERIOD    2
                    SECONDS     MINUTES      HOURS       DAYS        YEARS
                    -----------------------------------------------------------
   TIME STEP LENGTH  86400.      1440.0      24.000      1.0000     2.73785E-03
 STRESS PERIOD TIME 5.52960E+06  92160.      1536.0      64.000     0.17522    
         TOTAL TIME 5.61600E+06  93600.      1560.0      65.000     0.17796    
1
 
 SOLVING FOR HEAD 

 OUTPUT CONTROL FOR STRESS PERIOD    2   TIME STEP   65
    SAVE HEAD FOR ALL LAYERS
    SAVE DRAWDOWN FOR ALL LAYERS
    SAVE BUDGET
    PRINT HEAD FOR ALL LAYERS
    PRINT BUDGET
 UBDSV1 SAVING "         STORAGE" ON UNIT  53 AT TIME STEP 65, STRESS PERIOD   2
 UBDSV2 SAVING "   CONSTANT HEAD" ON UNIT  53 AT TIME STEP 65, STRESS PERIOD   2
 UBDSV1 SAVING "FLOW RIGHT FACE " ON UNIT  53 AT TIME STEP 65, STRESS PERIOD   2
 UBDSV1 SAVING "FLOW FRONT FACE " ON UNIT  53 AT TIME STEP 65, STRESS PERIOD   2
 UBDSV1 SAVING "FLOW LOWER FACE " ON UNIT  53 AT TIME STEP 65, STRESS PERIOD   2
1
              HEAD IN LAYER   1 AT END OF TIME STEP  65 IN STRESS PERIOD    2
  ---------------------------------------------------------------------------

            1           2           3           4           5           6           7           8           9          10
 ........................................................................................................................
   1   10.000       9.957       9.880       9.717       9.382       8.745       7.629       5.853       3.300      3.0210E-03
   2   10.000       9.957       9.880       9.717       9.382       8.745       7.629       5.853       3.300      3.0210E-03
   3   10.000       9.957       9.880       9.717       9.382       8.745       7.629       5.853       3.300      3.0210E-03
   4   10.000       9.957       9.880       9.717       9.382       8.745       7.629       5.853       3.300      3.0210E-03
   5   10.000       9.957       9.880       9.717       9.382       8.745       7.629       5.853       3.300      3.0210E-03
   6   10.000       9.957       9.880       9.717       9.382       8.745       7.629       5.853       3.300      3.0210E-03
   7   10.000       9.957       9.880       9.717       9.382       8.745       7.629       5.853       3.300      3.0210E-03
   8   10.000       9.957       9.880       9.717       9.382       8.745       7.629       5.853       3.300      3.0210E-03
   9   10.000       9.957       9.880       9.717       9.382       8.745       7.629       5.853       3.300      3.0210E-03
  10   10.000       9.957       9.880       9.717       9.382       8.745       7.629       5.853       3.300      3.0210E-03
1
              HEAD IN LAYER   2 AT END OF TIME STEP  65 IN STRESS PERIOD    2
  ---------------------------------------------------------------------------

            1           2           3           4           5           6           7           8           9          10
 ........................................................................................................................
   1   10.000       9.955       9.875       9.707       9.366       8.720       7.597       5.818       3.272      6.8683E-03
   2   10.000       9.955       9.875       9.707       9.366       8.720       7.597       5.818       3.272      6.8683E-03
   3   10.000       9.955       9.875       9.707       9.366       8.720       7.597       5.818       3.272      6.8683E-03
   4   10.000       9.955       9.875       9.707       9.366       8.720       7.597       5.818       3.272      6.8683E-03
   5   10.000       9.955       9.875       9.707       9.366       8.720       7.597       5.818       3.272      6.8683E-03
   6   10.000       9.955       9.875       9.707       9.366       8.720       7.597       5.818       3.272      6.8683E-03
   7   10.000       9.955       9.875       9.707       9.366       8.720       7.597       5.818       3.272      6.8683E-03
   8   10.000       9.955       9.875       9.707       9.366       8.720       7.597       5.818       3.272      6.8683E-03
   9   10.000       9.955       9.875       9.707       9.366       8.720       7.597       5.818       3.272      6.8683E-03
  10   10.000       9.955       9.875       9.707       9.366       8.720       7.597       5.818       3.272      6.8683E-03
1
              HEAD IN LAYER   3 AT END OF TIME STEP  65 IN STRESS PERIOD    2
  ---------------------------------------------------------------------------

            1           2           3           4           5           6           7           8           9          10
 ........................................................................................................................
   1   10.000       9.954       9.871       9.700       9.353       8.701       7.570       5.787       3.244      7.6480E-03
   2   10.000       9.954       9.871       9.700       9.353       8.701       7.570       5.787       3.244      7.6480E-03
   3   10.000       9.954       9.871       9.700       9.353       8.701       7.570       5.787       3.244      7.6480E-03
   4   10.000       9.954       9.871       9.700       9.353       8.701       7.570       5.787       3.244      7.6480E-03
   5   10.000       9.954       9.871       9.700       9.353       8.701       7.570       5.787       3.244      7.6480E-03
   6   10.000       9.954       9.871       9.700       9.353       8.701       7.570       5.787       3.244      7.6480E-03
   7   10.000       9.954       9.871       9.700       9.353       8.701       7.570       5.787       3.244      7.6480E-03
   8   10.000       9.954       9.871       9.700       9.353       8.701       7.570       5.787       3.244      7.6480E-03
   9   10.000       9.954       9.871       9.700       9.353       8.701       7.570       5.787       3.244      7.6480E-03
  10   10.000       9.954       9.871       9.700       9.353       8.701       7.570       5.787       3.244      7.6480E-03
1
              HEAD IN LAYER   4 AT END OF TIME STEP  65 IN STRESS PERIOD    2
  ---------------------------------------------------------------------------

            1           2           3           4           5           6           7           8           9          10
 ........................................................................................................................
   1   10.000       9.953       9.869       9.695       9.345       8.688       7.553       5.766       3.225      7.7106E-03
   2   10.000       9.953       9.869       9.695       9.345       8.688       7.553       5.766       3.225      7.7106E-03
   3   10.000       9.953       9.869       9.695       9.345       8.688       7.553       5.766       3.225      7.7106E-03
   4   10.000       9.953       9.869       9.695       9.345       8.688       7.553       5.766       3.225      7.7106E-03
   5   10.000       9.953       9.869       9.695       9.345       8.688       7.553       5.766       3.225      7.7106E-03
   6   10.000       9.953       9.869       9.695       9.345       8.688       7.553       5.766       3.225      7.7106E-03
   7   10.000       9.953       9.869       9.695       9.345       8.688       7.553       5.766       3.225      7.7106E-03
   8   10.000       9.953       9.869       9.695       9.345       8.688       7.553       5.766       3.225      7.7106E-03
   9   10.000       9.953       9.869       9.695       9.345       8.688       7.553       5.766       3.225      7.7106E-03
  10   10.000       9.953       9.869       9.695       9.345       8.688       7.553       5.766       3.225      7.7106E-03
1
              HEAD IN LAYER   5 AT END OF TIME STEP  65 IN STRESS PERIOD    2
  ---------------------------------------------------------------------------

            1           2           3           4           5           6           7           8           9          10
 ........................................................................................................................
   1   10.000       9.952       9.868       9.693       9.341       8.681       7.544       5.756       3.216      7.7017E-03
   2   10.000       9.952       9.868       9.693       9.341       8.681       7.544       5.756       3.216      7.7017E-03
   3   10.000       9.952       9.868       9.693       9.341       8.681       7.544       5.756       3.216      7.7017E-03
   4   10.000       9.952       9.868       9.693       9.341       8.681       7.544       5.756       3.216      7.7017E-03
   5   10.000       9.952       9.868       9.693       9.341       8.681       7.544       5.756       3.216      7.7017E-03
   6   10.000       9.952       9.868       9.693       9.341       8.681       7.544       5.756       3.216      7.7017E-03
   7   10.000       9.952       9.868       9.693       9.341       8.681       7.544       5.756       3.216      7.7017E-03
   8   10.000       9.952       9.868       9.693       9.341       8.681       7.544       5.756       3.216      7.7017E-03
   9   10.000       9.952       9.868       9.693       9.341       8.681       7.544       5.756       3.216      7.7017E-03
  10   10.000       9.952       9.868       9.693       9.341       8.681       7.544       5.756       3.216      7.7017E-03

 HEAD WILL BE SAVED ON UNIT   51 AT END OF TIME STEP   65, STRESS PERIOD    2

 DRAWDOWN WILL BE SAVED ON UNIT   52 AT END OF TIME STEP   65, STRESS PERIOD    2
1
  VOLUMETRIC BUDGET FOR ENTIRE MODEL AT END OF TIME STEP   65, STRESS PERIOD   2
  ------------------------------------------------------------------------------

     CUMULATIVE VOLUMES      L**3       RATES FOR THIS TIME STEP      L**3/T
     ------------------                 ------------------------

           IN:                                      IN:
           ---                                      ---
             STORAGE =      267741.4062               STORAGE =        1620.1259
       CONSTANT HEAD =           0.0000         CONSTANT HEAD =           0.0000
               WELLS =           0.0000                 WELLS =           0.0000
     HEAD DEP BOUNDS =         426.2792       HEAD DEP BOUNDS =          27.2796

            TOTAL IN =      268167.6875              TOTAL IN =        1647.4055

          OUT:                                     OUT:
          ----                                     ----
             STORAGE =           0.0000               STORAGE =           0.0000
       CONSTANT HEAD =           0.0000         CONSTANT HEAD =           0.0000
               WELLS =           0.0000                 WELLS =           0.0000
     HEAD DEP BOUNDS =      268168.6250       HEAD DEP BOUNDS =        1647.4766

           TOTAL OUT =      268168.6250             TOTAL OUT =        1647.4766

            IN - OUT =          -0.9375              IN - OUT =      -7.1045E-02

 PERCENT DISCREPANCY =          -0.00     PERCENT DISCREPANCY =          -0.00






         TIME SUMMARY AT END OF TIME STEP   65 IN STRESS PERIOD    2
                    SECONDS     MINUTES      HOURS       DAYS        YEARS
                    -----------------------------------------------------------
   TIME STEP LENGTH  86400.      1440.0      24.000      1.0000     2.73785E-03
 STRESS PERIOD TIME 5.61600E+06  93600.      1560.0      65.000     0.17796    
         TOTAL TIME 5.70240E+06  95040.      1584.0      66.000     0.18070    
1
 
 SOLVING FOR HEAD 

 OUTPUT CONTROL FOR STRESS PERIOD    2   TIME STEP   66
    SAVE HEAD FOR ALL LAYERS
    SAVE DRAWDOWN FOR ALL LAYERS
    SAVE BUDGET
    PRINT HEAD FOR ALL LAYERS
    PRINT BUDGET
 UBDSV1 SAVING "         STORAGE" ON UNIT  53 AT TIME STEP 66, STRESS PERIOD   2
 UBDSV2 SAVING "   CONSTANT HEAD" ON UNIT  53 AT TIME STEP 66, STRESS PERIOD   2
 UBDSV1 SAVING "FLOW RIGHT FACE " ON UNIT  53 AT TIME STEP 66, STRESS PERIOD   2
 UBDSV1 SAVING "FLOW FRONT FACE " ON UNIT  53 AT TIME STEP 66, STRESS PERIOD   2
 UBDSV1 SAVING "FLOW LOWER FACE " ON UNIT  53 AT TIME STEP 66, STRESS PERIOD   2
1
              HEAD IN LAYER   1 AT END OF TIME STEP  66 IN STRESS PERIOD    2
  ---------------------------------------------------------------------------

            1           2           3           4           5           6           7           8           9          10
 ........................................................................................................................
   1   10.000       9.955       9.875       9.707       9.365       8.719       7.596       5.818       3.275      2.9965E-03
   2   10.000       9.955       9.875       9.707       9.365       8.719       7.596       5.818       3.275      2.9965E-03
   3   10.000       9.955       9.875       9.707       9.365       8.719       7.596       5.818       3.275      2.9965E-03
   4   10.000       9.955       9.875       9.707       9.365       8.719       7.596       5.818       3.275      2.9965E-03
   5   10.000       9.955       9.875       9.707       9.365       8.719       7.596       5.818       3.275      2.9965E-03
   6   10.000       9.955       9.875       9.707       9.365       8.719       7.596       5.818       3.275      2.9965E-03
   7   10.000       9.955       9.875       9.707       9.365       8.719       7.596       5.818       3.275      2.9965E-03
   8   10.000       9.955       9.875       9.707       9.365       8.719       7.596       5.818       3.275      2.9965E-03
   9   10.000       9.955       9.875       9.707       9.365       8.719       7.596       5.818       3.275      2.9965E-03
  10   10.000       9.955       9.875       9.707       9.365       8.719       7.596       5.818       3.275      2.9965E-03
1
              HEAD IN LAYER   2 AT END OF TIME STEP  66 IN STRESS PERIOD    2
  ---------------------------------------------------------------------------

            1           2           3           4           5           6           7           8           9          10
 ........................................................................................................................
   1   10.000       9.953       9.870       9.697       9.349       8.694       7.564       5.784       3.248      6.8171E-03
   2   10.000       9.953       9.870       9.697       9.349       8.694       7.564       5.784       3.248      6.8171E-03
   3   10.000       9.953       9.870       9.697       9.349       8.694       7.564       5.784       3.248      6.8171E-03
   4   10.000       9.953       9.870       9.697       9.349       8.694       7.564       5.784       3.248      6.8171E-03
   5   10.000       9.953       9.870       9.697       9.349       8.694       7.564       5.784       3.248      6.8171E-03
   6   10.000       9.953       9.870       9.697       9.349       8.694       7.564       5.784       3.248      6.8171E-03
   7   10.000       9.953       9.870       9.697       9.349       8.694       7.564       5.784       3.248      6.8171E-03
   8   10.000       9.953       9.870       9.697       9.349       8.694       7.564       5.784       3.248      6.8171E-03
   9   10.000       9.953       9.870       9.697       9.349       8.694       7.564       5.784       3.248      6.8171E-03
  10   10.000       9.953       9.870       9.697       9.349       8.694       7.564       5.784       3.248      6.8171E-03
1
              HEAD IN LAYER   3 AT END OF TIME STEP  66 IN STRESS PERIOD    2
  ---------------------------------------------------------------------------

            1           2           3           4           5           6           7           8           9          10
 ........................................................................................................................
   1   10.000       9.952       9.866       9.690       9.336       8.675       7.538       5.753       3.220      7.5920E-03
   2   10.000       9.952       9.866       9.690       9.336       8.675       7.538       5.753       3.220      7.5920E-03
   3   10.000       9.952       9.866       9.690       9.336       8.675       7.538       5.753       3.220      7.5920E-03
   4   10.000       9.952       9.866       9.690       9.336       8.675       7.538       5.753       3.220      7.5920E-03
   5   10.000       9.952       9.866       9.690       9.336       8.675       7.538       5.753       3.220      7.5920E-03
   6   10.000       9.952       9.866       9.690       9.336       8.675       7.538       5.753       3.220      7.5920E-03
   7   10.000       9.952       9.866       9.690       9.336       8.675       7.538       5.753       3.220      7.5920E-03
   8   10.000       9.952       9.866       9.690       9.336       8.675       7.538       5.753       3.220      7.5920E-03
   9   10.000       9.952       9.866       9.690       9.336       8.675       7.538       5.753       3.220      7.5920E-03
  10   10.000       9.952       9.866       9.690       9.336       8.675       7.538       5.753       3.220      7.5920E-03
1
              HEAD IN LAYER   4 AT END OF TIME STEP  66 IN STRESS PERIOD    2
  ---------------------------------------------------------------------------

            1           2           3           4           5           6           7           8           9          10
 ........................................................................................................................
   1   10.000       9.951       9.864       9.685       9.328       8.662       7.520       5.733       3.202      7.6547E-03
   2   10.000       9.951       9.864       9.685       9.328       8.662       7.520       5.733       3.202      7.6547E-03
   3   10.000       9.951       9.864       9.685       9.328       8.662       7.520       5.733       3.202      7.6547E-03
   4   10.000       9.951       9.864       9.685       9.328       8.662       7.520       5.733       3.202      7.6547E-03
   5   10.000       9.951       9.864       9.685       9.328       8.662       7.520       5.733       3.202      7.6547E-03
   6   10.000       9.951       9.864       9.685       9.328       8.662       7.520       5.733       3.202      7.6547E-03
   7   10.000       9.951       9.864       9.685       9.328       8.662       7.520       5.733       3.202      7.6547E-03
   8   10.000       9.951       9.864       9.685       9.328       8.662       7.520       5.733       3.202      7.6547E-03
   9   10.000       9.951       9.864       9.685       9.328       8.662       7.520       5.733       3.202      7.6547E-03
  10   10.000       9.951       9.864       9.685       9.328       8.662       7.520       5.733       3.202      7.6547E-03
1
              HEAD IN LAYER   5 AT END OF TIME STEP  66 IN STRESS PERIOD    2
  ---------------------------------------------------------------------------

            1           2           3           4           5           6           7           8           9          10
 ........................................................................................................................
   1   10.000       9.950       9.862       9.683       9.324       8.655       7.511       5.723       3.193      7.6462E-03
   2   10.000       9.950       9.862       9.683       9.324       8.655       7.511       5.723       3.193      7.6462E-03
   3   10.000       9.950       9.862       9.683       9.324       8.655       7.511       5.723       3.193      7.6462E-03
   4   10.000       9.950       9.862       9.683       9.324       8.655       7.511       5.723       3.193      7.6462E-03
   5   10.000       9.950       9.862       9.683       9.324       8.655       7.511       5.723       3.193      7.6462E-03
   6   10.000       9.950       9.862       9.683       9.324       8.655       7.511       5.723       3.193      7.6462E-03
   7   10.000       9.950       9.862       9.683       9.324       8.655       7.511       5.723       3.193      7.6462E-03
   8   10.000       9.950       9.862       9.683       9.324       8.655       7.511       5.723       3.193      7.6462E-03
   9   10.000       9.950       9.862       9.683       9.324       8.655       7.511       5.723       3.193      7.6462E-03
  10   10.000       9.950       9.862       9.683       9.324       8.655       7.511       5.723       3.193      7.6462E-03

 HEAD WILL BE SAVED ON UNIT   51 AT END OF TIME STEP   66, STRESS PERIOD    2

 DRAWDOWN WILL BE SAVED ON UNIT   52 AT END OF TIME STEP   66, STRESS PERIOD    2
1
  VOLUMETRIC BUDGET FOR ENTIRE MODEL AT END OF TIME STEP   66, STRESS PERIOD   2
  ------------------------------------------------------------------------------

     CUMULATIVE VOLUMES      L**3       RATES FOR THIS TIME STEP      L**3/T
     ------------------                 ------------------------

           IN:                                      IN:
           ---                                      ---
             STORAGE =      269348.0938               STORAGE =        1606.6838
       CONSTANT HEAD =           0.0000         CONSTANT HEAD =           0.0000
               WELLS =           0.0000                 WELLS =           0.0000
     HEAD DEP BOUNDS =         454.8898       HEAD DEP BOUNDS =          28.6106

            TOTAL IN =      269802.9688              TOTAL IN =        1635.2944

          OUT:                                     OUT:
          ----                                     ----
             STORAGE =           0.0000               STORAGE =           0.0000
       CONSTANT HEAD =           0.0000         CONSTANT HEAD =           0.0000
               WELLS =           0.0000                 WELLS =           0.0000
     HEAD DEP BOUNDS =      269803.9688       HEAD DEP BOUNDS =        1635.3291

           TOTAL OUT =      269803.9688             TOTAL OUT =        1635.3291

            IN - OUT =          -1.0000              IN - OUT =      -3.4668E-02

 PERCENT DISCREPANCY =          -0.00     PERCENT DISCREPANCY =          -0.00






         TIME SUMMARY AT END OF TIME STEP   66 IN STRESS PERIOD    2
                    SECONDS     MINUTES      HOURS       DAYS        YEARS
                    -----------------------------------------------------------
   TIME STEP LENGTH  86400.      1440.0      24.000      1.0000     2.73785E-03
 STRESS PERIOD TIME 5.70240E+06  95040.      1584.0      66.000     0.18070    
         TOTAL TIME 5.78880E+06  96480.      1608.0      67.000     0.18344    
1
 
 SOLVING FOR HEAD 

 OUTPUT CONTROL FOR STRESS PERIOD    2   TIME STEP   67
    SAVE HEAD FOR ALL LAYERS
    SAVE DRAWDOWN FOR ALL LAYERS
    SAVE BUDGET
    PRINT HEAD FOR ALL LAYERS
    PRINT BUDGET
 UBDSV1 SAVING "         STORAGE" ON UNIT  53 AT TIME STEP 67, STRESS PERIOD   2
 UBDSV2 SAVING "   CONSTANT HEAD" ON UNIT  53 AT TIME STEP 67, STRESS PERIOD   2
 UBDSV1 SAVING "FLOW RIGHT FACE " ON UNIT  53 AT TIME STEP 67, STRESS PERIOD   2
 UBDSV1 SAVING "FLOW FRONT FACE " ON UNIT  53 AT TIME STEP 67, STRESS PERIOD   2
 UBDSV1 SAVING "FLOW LOWER FACE " ON UNIT  53 AT TIME STEP 67, STRESS PERIOD   2
1
              HEAD IN LAYER   1 AT END OF TIME STEP  67 IN STRESS PERIOD    2
  ---------------------------------------------------------------------------

            1           2           3           4           5           6           7           8           9          10
 ........................................................................................................................
   1   10.000       9.953       9.870       9.697       9.348       8.693       7.563       5.784       3.251      2.9724E-03
   2   10.000       9.953       9.870       9.697       9.348       8.693       7.563       5.784       3.251      2.9724E-03
   3   10.000       9.953       9.870       9.697       9.348       8.693       7.563       5.784       3.251      2.9724E-03
   4   10.000       9.953       9.870       9.697       9.348       8.693       7.563       5.784       3.251      2.9724E-03
   5   10.000       9.953       9.870       9.697       9.348       8.693       7.563       5.784       3.251      2.9724E-03
   6   10.000       9.953       9.870       9.697       9.348       8.693       7.563       5.784       3.251      2.9724E-03
   7   10.000       9.953       9.870       9.697       9.348       8.693       7.563       5.784       3.251      2.9724E-03
   8   10.000       9.953       9.870       9.697       9.348       8.693       7.563       5.784       3.251      2.9724E-03
   9   10.000       9.953       9.870       9.697       9.348       8.693       7.563       5.784       3.251      2.9724E-03
  10   10.000       9.953       9.870       9.697       9.348       8.693       7.563       5.784       3.251      2.9724E-03
1
              HEAD IN LAYER   2 AT END OF TIME STEP  67 IN STRESS PERIOD    2
  ---------------------------------------------------------------------------

            1           2           3           4           5           6           7           8           9          10
 ........................................................................................................................
   1   10.000       9.951       9.865       9.687       9.332       8.669       7.531       5.750       3.224      6.7669E-03
   2   10.000       9.951       9.865       9.687       9.332       8.669       7.531       5.750       3.224      6.7669E-03
   3   10.000       9.951       9.865       9.687       9.332       8.669       7.531       5.750       3.224      6.7669E-03
   4   10.000       9.951       9.865       9.687       9.332       8.669       7.531       5.750       3.224      6.7669E-03
   5   10.000       9.951       9.865       9.687       9.332       8.669       7.531       5.750       3.224      6.7669E-03
   6   10.000       9.951       9.865       9.687       9.332       8.669       7.531       5.750       3.224      6.7669E-03
   7   10.000       9.951       9.865       9.687       9.332       8.669       7.531       5.750       3.224      6.7669E-03
   8   10.000       9.951       9.865       9.687       9.332       8.669       7.531       5.750       3.224      6.7669E-03
   9   10.000       9.951       9.865       9.687       9.332       8.669       7.531       5.750       3.224      6.7669E-03
  10   10.000       9.951       9.865       9.687       9.332       8.669       7.531       5.750       3.224      6.7669E-03
1
              HEAD IN LAYER   3 AT END OF TIME STEP  67 IN STRESS PERIOD    2
  ---------------------------------------------------------------------------

            1           2           3           4           5           6           7           8           9          10
 ........................................................................................................................
   1   10.000       9.949       9.861       9.680       9.319       8.649       7.505       5.720       3.197      7.5373E-03
   2   10.000       9.949       9.861       9.680       9.319       8.649       7.505       5.720       3.197      7.5373E-03
   3   10.000       9.949       9.861       9.680       9.319       8.649       7.505       5.720       3.197      7.5373E-03
   4   10.000       9.949       9.861       9.680       9.319       8.649       7.505       5.720       3.197      7.5373E-03
   5   10.000       9.949       9.861       9.680       9.319       8.649       7.505       5.720       3.197      7.5373E-03
   6   10.000       9.949       9.861       9.680       9.319       8.649       7.505       5.720       3.197      7.5373E-03
   7   10.000       9.949       9.861       9.680       9.319       8.649       7.505       5.720       3.197      7.5373E-03
   8   10.000       9.949       9.861       9.680       9.319       8.649       7.505       5.720       3.197      7.5373E-03
   9   10.000       9.949       9.861       9.680       9.319       8.649       7.505       5.720       3.197      7.5373E-03
  10   10.000       9.949       9.861       9.680       9.319       8.649       7.505       5.720       3.197      7.5373E-03
1
              HEAD IN LAYER   4 AT END OF TIME STEP  67 IN STRESS PERIOD    2
  ---------------------------------------------------------------------------

            1           2           3           4           5           6           7           8           9          10
 ........................................................................................................................
   1   10.000       9.948       9.858       9.675       9.310       8.636       7.488       5.700       3.179      7.6001E-03
   2   10.000       9.948       9.858       9.675       9.310       8.636       7.488       5.700       3.179      7.6001E-03
   3   10.000       9.948       9.858       9.675       9.310       8.636       7.488       5.700       3.179      7.6001E-03
   4   10.000       9.948       9.858       9.675       9.310       8.636       7.488       5.700       3.179      7.6001E-03
   5   10.000       9.948       9.858       9.675       9.310       8.636       7.488       5.700       3.179      7.6001E-03
   6   10.000       9.948       9.858       9.675       9.310       8.636       7.488       5.700       3.179      7.6001E-03
   7   10.000       9.948       9.858       9.675       9.310       8.636       7.488       5.700       3.179      7.6001E-03
   8   10.000       9.948       9.858       9.675       9.310       8.636       7.488       5.700       3.179      7.6001E-03
   9   10.000       9.948       9.858       9.675       9.310       8.636       7.488       5.700       3.179      7.6001E-03
  10   10.000       9.948       9.858       9.675       9.310       8.636       7.488       5.700       3.179      7.6001E-03
1
              HEAD IN LAYER   5 AT END OF TIME STEP  67 IN STRESS PERIOD    2
  ---------------------------------------------------------------------------

            1           2           3           4           5           6           7           8           9          10
 ........................................................................................................................
   1   10.000       9.948       9.857       9.672       9.306       8.630       7.479       5.690       3.170      7.5919E-03
   2   10.000       9.948       9.857       9.672       9.306       8.630       7.479       5.690       3.170      7.5919E-03
   3   10.000       9.948       9.857       9.672       9.306       8.630       7.479       5.690       3.170      7.5919E-03
   4   10.000       9.948       9.857       9.672       9.306       8.630       7.479       5.690       3.170      7.5919E-03
   5   10.000       9.948       9.857       9.672       9.306       8.630       7.479       5.690       3.170      7.5919E-03
   6   10.000       9.948       9.857       9.672       9.306       8.630       7.479       5.690       3.170      7.5919E-03
   7   10.000       9.948       9.857       9.672       9.306       8.630       7.479       5.690       3.170      7.5919E-03
   8   10.000       9.948       9.857       9.672       9.306       8.630       7.479       5.690       3.170      7.5919E-03
   9   10.000       9.948       9.857       9.672       9.306       8.630       7.479       5.690       3.170      7.5919E-03
  10   10.000       9.948       9.857       9.672       9.306       8.630       7.479       5.690       3.170      7.5919E-03

 HEAD WILL BE SAVED ON UNIT   51 AT END OF TIME STEP   67, STRESS PERIOD    2

 DRAWDOWN WILL BE SAVED ON UNIT   52 AT END OF TIME STEP   67, STRESS PERIOD    2
1
  VOLUMETRIC BUDGET FOR ENTIRE MODEL AT END OF TIME STEP   67, STRESS PERIOD   2
  ------------------------------------------------------------------------------

     CUMULATIVE VOLUMES      L**3       RATES FOR THIS TIME STEP      L**3/T
     ------------------                 ------------------------

           IN:                                      IN:
           ---                                      ---
             STORAGE =      270941.5625               STORAGE =        1593.4755
       CONSTANT HEAD =           0.0000         CONSTANT HEAD =           0.0000
               WELLS =           0.0000                 WELLS =           0.0000
     HEAD DEP BOUNDS =         484.8618       HEAD DEP BOUNDS =          29.9720

            TOTAL IN =      271426.4375              TOTAL IN =        1623.4475

          OUT:                                     OUT:
          ----                                     ----
             STORAGE =           0.0000               STORAGE =           0.0000
       CONSTANT HEAD =           0.0000         CONSTANT HEAD =           0.0000
               WELLS =           0.0000                 WELLS =           0.0000
     HEAD DEP BOUNDS =      271427.4062       HEAD DEP BOUNDS =        1623.4279

           TOTAL OUT =      271427.4062             TOTAL OUT =        1623.4279

            IN - OUT =          -0.9688              IN - OUT =       1.9653E-02

 PERCENT DISCREPANCY =          -0.00     PERCENT DISCREPANCY =           0.00






         TIME SUMMARY AT END OF TIME STEP   67 IN STRESS PERIOD    2
                    SECONDS     MINUTES      HOURS       DAYS        YEARS
                    -----------------------------------------------------------
   TIME STEP LENGTH  86400.      1440.0      24.000      1.0000     2.73785E-03
 STRESS PERIOD TIME 5.78880E+06  96480.      1608.0      67.000     0.18344    
         TOTAL TIME 5.87520E+06  97920.      1632.0      68.000     0.18617    
1
 
 SOLVING FOR HEAD 

 OUTPUT CONTROL FOR STRESS PERIOD    2   TIME STEP   68
    SAVE HEAD FOR ALL LAYERS
    SAVE DRAWDOWN FOR ALL LAYERS
    SAVE BUDGET
    PRINT HEAD FOR ALL LAYERS
    PRINT BUDGET
 UBDSV1 SAVING "         STORAGE" ON UNIT  53 AT TIME STEP 68, STRESS PERIOD   2
 UBDSV2 SAVING "   CONSTANT HEAD" ON UNIT  53 AT TIME STEP 68, STRESS PERIOD   2
 UBDSV1 SAVING "FLOW RIGHT FACE " ON UNIT  53 AT TIME STEP 68, STRESS PERIOD   2
 UBDSV1 SAVING "FLOW FRONT FACE " ON UNIT  53 AT TIME STEP 68, STRESS PERIOD   2
 UBDSV1 SAVING "FLOW LOWER FACE " ON UNIT  53 AT TIME STEP 68, STRESS PERIOD   2
1
              HEAD IN LAYER   1 AT END OF TIME STEP  68 IN STRESS PERIOD    2
  ---------------------------------------------------------------------------

            1           2           3           4           5           6           7           8           9          10
 ........................................................................................................................
   1   10.000       9.951       9.864       9.686       9.331       8.667       7.530       5.750       3.227      2.9489E-03
   2   10.000       9.951       9.864       9.686       9.331       8.667       7.530       5.750       3.227      2.9489E-03
   3   10.000       9.951       9.864       9.686       9.331       8.667       7.530       5.750       3.227      2.9489E-03
   4   10.000       9.951       9.864       9.686       9.331       8.667       7.530       5.750       3.227      2.9489E-03
   5   10.000       9.951       9.864       9.686       9.331       8.667       7.530       5.750       3.227      2.9489E-03
   6   10.000       9.951       9.864       9.686       9.331       8.667       7.530       5.750       3.227      2.9489E-03
   7   10.000       9.951       9.864       9.686       9.331       8.667       7.530       5.750       3.227      2.9489E-03
   8   10.000       9.951       9.864       9.686       9.331       8.667       7.530       5.750       3.227      2.9489E-03
   9   10.000       9.951       9.864       9.686       9.331       8.667       7.530       5.750       3.227      2.9489E-03
  10   10.000       9.951       9.864       9.686       9.331       8.667       7.530       5.750       3.227      2.9489E-03
1
              HEAD IN LAYER   2 AT END OF TIME STEP  68 IN STRESS PERIOD    2
  ---------------------------------------------------------------------------

            1           2           3           4           5           6           7           8           9          10
 ........................................................................................................................
   1   10.000       9.949       9.859       9.677       9.314       8.643       7.499       5.717       3.201      6.7179E-03
   2   10.000       9.949       9.859       9.677       9.314       8.643       7.499       5.717       3.201      6.7179E-03
   3   10.000       9.949       9.859       9.677       9.314       8.643       7.499       5.717       3.201      6.7179E-03
   4   10.000       9.949       9.859       9.677       9.314       8.643       7.499       5.717       3.201      6.7179E-03
   5   10.000       9.949       9.859       9.677       9.314       8.643       7.499       5.717       3.201      6.7179E-03
   6   10.000       9.949       9.859       9.677       9.314       8.643       7.499       5.717       3.201      6.7179E-03
   7   10.000       9.949       9.859       9.677       9.314       8.643       7.499       5.717       3.201      6.7179E-03
   8   10.000       9.949       9.859       9.677       9.314       8.643       7.499       5.717       3.201      6.7179E-03
   9   10.000       9.949       9.859       9.677       9.314       8.643       7.499       5.717       3.201      6.7179E-03
  10   10.000       9.949       9.859       9.677       9.314       8.643       7.499       5.717       3.201      6.7179E-03
1
              HEAD IN LAYER   3 AT END OF TIME STEP  68 IN STRESS PERIOD    2
  ---------------------------------------------------------------------------

            1           2           3           4           5           6           7           8           9          10
 ........................................................................................................................
   1   10.000       9.947       9.855       9.669       9.302       8.624       7.473       5.687       3.174      7.4837E-03
   2   10.000       9.947       9.855       9.669       9.302       8.624       7.473       5.687       3.174      7.4837E-03
   3   10.000       9.947       9.855       9.669       9.302       8.624       7.473       5.687       3.174      7.4837E-03
   4   10.000       9.947       9.855       9.669       9.302       8.624       7.473       5.687       3.174      7.4837E-03
   5   10.000       9.947       9.855       9.669       9.302       8.624       7.473       5.687       3.174      7.4837E-03
   6   10.000       9.947       9.855       9.669       9.302       8.624       7.473       5.687       3.174      7.4837E-03
   7   10.000       9.947       9.855       9.669       9.302       8.624       7.473       5.687       3.174      7.4837E-03
   8   10.000       9.947       9.855       9.669       9.302       8.624       7.473       5.687       3.174      7.4837E-03
   9   10.000       9.947       9.855       9.669       9.302       8.624       7.473       5.687       3.174      7.4837E-03
  10   10.000       9.947       9.855       9.669       9.302       8.624       7.473       5.687       3.174      7.4837E-03
1
              HEAD IN LAYER   4 AT END OF TIME STEP  68 IN STRESS PERIOD    2
  ---------------------------------------------------------------------------

            1           2           3           4           5           6           7           8           9          10
 ........................................................................................................................
   1   10.000       9.946       9.853       9.664       9.293       8.611       7.456       5.667       3.157      7.5466E-03
   2   10.000       9.946       9.853       9.664       9.293       8.611       7.456       5.667       3.157      7.5466E-03
   3   10.000       9.946       9.853       9.664       9.293       8.611       7.456       5.667       3.157      7.5466E-03
   4   10.000       9.946       9.853       9.664       9.293       8.611       7.456       5.667       3.157      7.5466E-03
   5   10.000       9.946       9.853       9.664       9.293       8.611       7.456       5.667       3.157      7.5466E-03
   6   10.000       9.946       9.853       9.664       9.293       8.611       7.456       5.667       3.157      7.5466E-03
   7   10.000       9.946       9.853       9.664       9.293       8.611       7.456       5.667       3.157      7.5466E-03
   8   10.000       9.946       9.853       9.664       9.293       8.611       7.456       5.667       3.157      7.5466E-03
   9   10.000       9.946       9.853       9.664       9.293       8.611       7.456       5.667       3.157      7.5466E-03
  10   10.000       9.946       9.853       9.664       9.293       8.611       7.456       5.667       3.157      7.5466E-03
1
              HEAD IN LAYER   5 AT END OF TIME STEP  68 IN STRESS PERIOD    2
  ---------------------------------------------------------------------------

            1           2           3           4           5           6           7           8           9          10
 ........................................................................................................................
   1   10.000       9.945       9.851       9.662       9.289       8.604       7.447       5.657       3.148      7.5387E-03
   2   10.000       9.945       9.851       9.662       9.289       8.604       7.447       5.657       3.148      7.5387E-03
   3   10.000       9.945       9.851       9.662       9.289       8.604       7.447       5.657       3.148      7.5387E-03
   4   10.000       9.945       9.851       9.662       9.289       8.604       7.447       5.657       3.148      7.5387E-03
   5   10.000       9.945       9.851       9.662       9.289       8.604       7.447       5.657       3.148      7.5387E-03
   6   10.000       9.945       9.851       9.662       9.289       8.604       7.447       5.657       3.148      7.5387E-03
   7   10.000       9.945       9.851       9.662       9.289       8.604       7.447       5.657       3.148      7.5387E-03
   8   10.000       9.945       9.851       9.662       9.289       8.604       7.447       5.657       3.148      7.5387E-03
   9   10.000       9.945       9.851       9.662       9.289       8.604       7.447       5.657       3.148      7.5387E-03
  10   10.000       9.945       9.851       9.662       9.289       8.604       7.447       5.657       3.148      7.5387E-03

 HEAD WILL BE SAVED ON UNIT   51 AT END OF TIME STEP   68, STRESS PERIOD    2

 DRAWDOWN WILL BE SAVED ON UNIT   52 AT END OF TIME STEP   68, STRESS PERIOD    2
1
  VOLUMETRIC BUDGET FOR ENTIRE MODEL AT END OF TIME STEP   68, STRESS PERIOD   2
  ------------------------------------------------------------------------------

     CUMULATIVE VOLUMES      L**3       RATES FOR THIS TIME STEP      L**3/T
     ------------------                 ------------------------

           IN:                                      IN:
           ---                                      ---
             STORAGE =      272522.0000               STORAGE =        1580.4354
       CONSTANT HEAD =           0.0000         CONSTANT HEAD =           0.0000
               WELLS =           0.0000                 WELLS =           0.0000
     HEAD DEP BOUNDS =         516.1571       HEAD DEP BOUNDS =          31.2953

            TOTAL IN =      273038.1562              TOTAL IN =        1611.7307

          OUT:                                     OUT:
          ----                                     ----
             STORAGE =           0.0000               STORAGE =           0.0000
       CONSTANT HEAD =           0.0000         CONSTANT HEAD =           0.0000
               WELLS =           0.0000                 WELLS =           0.0000
     HEAD DEP BOUNDS =      273039.1875       HEAD DEP BOUNDS =        1611.7892

           TOTAL OUT =      273039.1875             TOTAL OUT =        1611.7892

            IN - OUT =          -1.0312              IN - OUT =      -5.8472E-02

 PERCENT DISCREPANCY =          -0.00     PERCENT DISCREPANCY =          -0.00






         TIME SUMMARY AT END OF TIME STEP   68 IN STRESS PERIOD    2
                    SECONDS     MINUTES      HOURS       DAYS        YEARS
                    -----------------------------------------------------------
   TIME STEP LENGTH  86400.      1440.0      24.000      1.0000     2.73785E-03
 STRESS PERIOD TIME 5.87520E+06  97920.      1632.0      68.000     0.18617    
         TOTAL TIME 5.96160E+06  99360.      1656.0      69.000     0.18891    
1
 
 SOLVING FOR HEAD 

 OUTPUT CONTROL FOR STRESS PERIOD    2   TIME STEP   69
    SAVE HEAD FOR ALL LAYERS
    SAVE DRAWDOWN FOR ALL LAYERS
    SAVE BUDGET
    PRINT HEAD FOR ALL LAYERS
    PRINT BUDGET
 UBDSV1 SAVING "         STORAGE" ON UNIT  53 AT TIME STEP 69, STRESS PERIOD   2
 UBDSV2 SAVING "   CONSTANT HEAD" ON UNIT  53 AT TIME STEP 69, STRESS PERIOD   2
 UBDSV1 SAVING "FLOW RIGHT FACE " ON UNIT  53 AT TIME STEP 69, STRESS PERIOD   2
 UBDSV1 SAVING "FLOW FRONT FACE " ON UNIT  53 AT TIME STEP 69, STRESS PERIOD   2
 UBDSV1 SAVING "FLOW LOWER FACE " ON UNIT  53 AT TIME STEP 69, STRESS PERIOD   2
1
              HEAD IN LAYER   1 AT END OF TIME STEP  69 IN STRESS PERIOD    2
  ---------------------------------------------------------------------------

            1           2           3           4           5           6           7           8           9          10
 ........................................................................................................................
   1   10.000       9.948       9.859       9.676       9.313       8.642       7.498       5.717       3.204      2.9259E-03
   2   10.000       9.948       9.859       9.676       9.313       8.642       7.498       5.717       3.204      2.9259E-03
   3   10.000       9.948       9.859       9.676       9.313       8.642       7.498       5.717       3.204      2.9259E-03
   4   10.000       9.948       9.859       9.676       9.313       8.642       7.498       5.717       3.204      2.9259E-03
   5   10.000       9.948       9.859       9.676       9.313       8.642       7.498       5.717       3.204      2.9259E-03
   6   10.000       9.948       9.859       9.676       9.313       8.642       7.498       5.717       3.204      2.9259E-03
   7   10.000       9.948       9.859       9.676       9.313       8.642       7.498       5.717       3.204      2.9259E-03
   8   10.000       9.948       9.859       9.676       9.313       8.642       7.498       5.717       3.204      2.9259E-03
   9   10.000       9.948       9.859       9.676       9.313       8.642       7.498       5.717       3.204      2.9259E-03
  10   10.000       9.948       9.859       9.676       9.313       8.642       7.498       5.717       3.204      2.9259E-03
1
              HEAD IN LAYER   2 AT END OF TIME STEP  69 IN STRESS PERIOD    2
  ---------------------------------------------------------------------------

            1           2           3           4           5           6           7           8           9          10
 ........................................................................................................................
   1   10.000       9.946       9.854       9.666       9.297       8.618       7.467       5.684       3.178      6.6699E-03
   2   10.000       9.946       9.854       9.666       9.297       8.618       7.467       5.684       3.178      6.6699E-03
   3   10.000       9.946       9.854       9.666       9.297       8.618       7.467       5.684       3.178      6.6699E-03
   4   10.000       9.946       9.854       9.666       9.297       8.618       7.467       5.684       3.178      6.6699E-03
   5   10.000       9.946       9.854       9.666       9.297       8.618       7.467       5.684       3.178      6.6699E-03
   6   10.000       9.946       9.854       9.666       9.297       8.618       7.467       5.684       3.178      6.6699E-03
   7   10.000       9.946       9.854       9.666       9.297       8.618       7.467       5.684       3.178      6.6699E-03
   8   10.000       9.946       9.854       9.666       9.297       8.618       7.467       5.684       3.178      6.6699E-03
   9   10.000       9.946       9.854       9.666       9.297       8.618       7.467       5.684       3.178      6.6699E-03
  10   10.000       9.946       9.854       9.666       9.297       8.618       7.467       5.684       3.178      6.6699E-03
1
              HEAD IN LAYER   3 AT END OF TIME STEP  69 IN STRESS PERIOD    2
  ---------------------------------------------------------------------------

            1           2           3           4           5           6           7           8           9          10
 ........................................................................................................................
   1   10.000       9.945       9.850       9.659       9.284       8.598       7.441       5.655       3.152      7.4312E-03
   2   10.000       9.945       9.850       9.659       9.284       8.598       7.441       5.655       3.152      7.4312E-03
   3   10.000       9.945       9.850       9.659       9.284       8.598       7.441       5.655       3.152      7.4312E-03
   4   10.000       9.945       9.850       9.659       9.284       8.598       7.441       5.655       3.152      7.4312E-03
   5   10.000       9.945       9.850       9.659       9.284       8.598       7.441       5.655       3.152      7.4312E-03
   6   10.000       9.945       9.850       9.659       9.284       8.598       7.441       5.655       3.152      7.4312E-03
   7   10.000       9.945       9.850       9.659       9.284       8.598       7.441       5.655       3.152      7.4312E-03
   8   10.000       9.945       9.850       9.659       9.284       8.598       7.441       5.655       3.152      7.4312E-03
   9   10.000       9.945       9.850       9.659       9.284       8.598       7.441       5.655       3.152      7.4312E-03
  10   10.000       9.945       9.850       9.659       9.284       8.598       7.441       5.655       3.152      7.4312E-03
1
              HEAD IN LAYER   4 AT END OF TIME STEP  69 IN STRESS PERIOD    2
  ---------------------------------------------------------------------------

            1           2           3           4           5           6           7           8           9          10
 ........................................................................................................................
   1   10.000       9.944       9.847       9.654       9.276       8.586       7.424       5.635       3.135      7.4942E-03
   2   10.000       9.944       9.847       9.654       9.276       8.586       7.424       5.635       3.135      7.4942E-03
   3   10.000       9.944       9.847       9.654       9.276       8.586       7.424       5.635       3.135      7.4942E-03
   4   10.000       9.944       9.847       9.654       9.276       8.586       7.424       5.635       3.135      7.4942E-03
   5   10.000       9.944       9.847       9.654       9.276       8.586       7.424       5.635       3.135      7.4942E-03
   6   10.000       9.944       9.847       9.654       9.276       8.586       7.424       5.635       3.135      7.4942E-03
   7   10.000       9.944       9.847       9.654       9.276       8.586       7.424       5.635       3.135      7.4942E-03
   8   10.000       9.944       9.847       9.654       9.276       8.586       7.424       5.635       3.135      7.4942E-03
   9   10.000       9.944       9.847       9.654       9.276       8.586       7.424       5.635       3.135      7.4942E-03
  10   10.000       9.944       9.847       9.654       9.276       8.586       7.424       5.635       3.135      7.4942E-03
1
              HEAD IN LAYER   5 AT END OF TIME STEP  69 IN STRESS PERIOD    2
  ---------------------------------------------------------------------------

            1           2           3           4           5           6           7           8           9          10
 ........................................................................................................................
   1   10.000       9.943       9.846       9.651       9.271       8.579       7.416       5.626       3.126      7.4865E-03
   2   10.000       9.943       9.846       9.651       9.271       8.579       7.416       5.626       3.126      7.4865E-03
   3   10.000       9.943       9.846       9.651       9.271       8.579       7.416       5.626       3.126      7.4865E-03
   4   10.000       9.943       9.846       9.651       9.271       8.579       7.416       5.626       3.126      7.4865E-03
   5   10.000       9.943       9.846       9.651       9.271       8.579       7.416       5.626       3.126      7.4865E-03
   6   10.000       9.943       9.846       9.651       9.271       8.579       7.416       5.626       3.126      7.4865E-03
   7   10.000       9.943       9.846       9.651       9.271       8.579       7.416       5.626       3.126      7.4865E-03
   8   10.000       9.943       9.846       9.651       9.271       8.579       7.416       5.626       3.126      7.4865E-03
   9   10.000       9.943       9.846       9.651       9.271       8.579       7.416       5.626       3.126      7.4865E-03
  10   10.000       9.943       9.846       9.651       9.271       8.579       7.416       5.626       3.126      7.4865E-03

 HEAD WILL BE SAVED ON UNIT   51 AT END OF TIME STEP   69, STRESS PERIOD    2

 DRAWDOWN WILL BE SAVED ON UNIT   52 AT END OF TIME STEP   69, STRESS PERIOD    2
1
  VOLUMETRIC BUDGET FOR ENTIRE MODEL AT END OF TIME STEP   69, STRESS PERIOD   2
  ------------------------------------------------------------------------------

     CUMULATIVE VOLUMES      L**3       RATES FOR THIS TIME STEP      L**3/T
     ------------------                 ------------------------

           IN:                                      IN:
           ---                                      ---
             STORAGE =      274089.6562               STORAGE =        1567.6514
       CONSTANT HEAD =           0.0000         CONSTANT HEAD =           0.0000
               WELLS =           0.0000                 WELLS =           0.0000
     HEAD DEP BOUNDS =         548.8725       HEAD DEP BOUNDS =          32.7154

            TOTAL IN =      274638.5312              TOTAL IN =        1600.3668

          OUT:                                     OUT:
          ----                                     ----
             STORAGE =           0.0000               STORAGE =           0.0000
       CONSTANT HEAD =           0.0000         CONSTANT HEAD =           0.0000
               WELLS =           0.0000                 WELLS =           0.0000
     HEAD DEP BOUNDS =      274639.5625       HEAD DEP BOUNDS =        1600.3881

           TOTAL OUT =      274639.5625             TOTAL OUT =        1600.3881

            IN - OUT =          -1.0312              IN - OUT =      -2.1240E-02

 PERCENT DISCREPANCY =          -0.00     PERCENT DISCREPANCY =          -0.00






         TIME SUMMARY AT END OF TIME STEP   69 IN STRESS PERIOD    2
                    SECONDS     MINUTES      HOURS       DAYS        YEARS
                    -----------------------------------------------------------
   TIME STEP LENGTH  86400.      1440.0      24.000      1.0000     2.73785E-03
 STRESS PERIOD TIME 5.96160E+06  99360.      1656.0      69.000     0.18891    
         TOTAL TIME 6.04800E+06 1.00800E+05  1680.0      70.000     0.19165    
1
 
 SOLVING FOR HEAD 

 OUTPUT CONTROL FOR STRESS PERIOD    2   TIME STEP   70
    SAVE HEAD FOR ALL LAYERS
    SAVE DRAWDOWN FOR ALL LAYERS
    SAVE BUDGET
    PRINT HEAD FOR ALL LAYERS
    PRINT BUDGET
 UBDSV1 SAVING "         STORAGE" ON UNIT  53 AT TIME STEP 70, STRESS PERIOD   2
 UBDSV2 SAVING "   CONSTANT HEAD" ON UNIT  53 AT TIME STEP 70, STRESS PERIOD   2
 UBDSV1 SAVING "FLOW RIGHT FACE " ON UNIT  53 AT TIME STEP 70, STRESS PERIOD   2
 UBDSV1 SAVING "FLOW FRONT FACE " ON UNIT  53 AT TIME STEP 70, STRESS PERIOD   2
 UBDSV1 SAVING "FLOW LOWER FACE " ON UNIT  53 AT TIME STEP 70, STRESS PERIOD   2
1
              HEAD IN LAYER   1 AT END OF TIME STEP  70 IN STRESS PERIOD    2
  ---------------------------------------------------------------------------

            1           2           3           4           5           6           7           8           9          10
 ........................................................................................................................
   1   10.000       9.946       9.853       9.666       9.296       8.616       7.466       5.684       3.181      2.9034E-03
   2   10.000       9.946       9.853       9.666       9.296       8.616       7.466       5.684       3.181      2.9034E-03
   3   10.000       9.946       9.853       9.666       9.296       8.616       7.466       5.684       3.181      2.9034E-03
   4   10.000       9.946       9.853       9.666       9.296       8.616       7.466       5.684       3.181      2.9034E-03
   5   10.000       9.946       9.853       9.666       9.296       8.616       7.466       5.684       3.181      2.9034E-03
   6   10.000       9.946       9.853       9.666       9.296       8.616       7.466       5.684       3.181      2.9034E-03
   7   10.000       9.946       9.853       9.666       9.296       8.616       7.466       5.684       3.181      2.9034E-03
   8   10.000       9.946       9.853       9.666       9.296       8.616       7.466       5.684       3.181      2.9034E-03
   9   10.000       9.946       9.853       9.666       9.296       8.616       7.466       5.684       3.181      2.9034E-03
  10   10.000       9.946       9.853       9.666       9.296       8.616       7.466       5.684       3.181      2.9034E-03
1
              HEAD IN LAYER   2 AT END OF TIME STEP  70 IN STRESS PERIOD    2
  ---------------------------------------------------------------------------

            1           2           3           4           5           6           7           8           9          10
 ........................................................................................................................
   1   10.000       9.944       9.848       9.656       9.279       8.592       7.435       5.652       3.156      6.6228E-03
   2   10.000       9.944       9.848       9.656       9.279       8.592       7.435       5.652       3.156      6.6228E-03
   3   10.000       9.944       9.848       9.656       9.279       8.592       7.435       5.652       3.156      6.6228E-03
   4   10.000       9.944       9.848       9.656       9.279       8.592       7.435       5.652       3.156      6.6228E-03
   5   10.000       9.944       9.848       9.656       9.279       8.592       7.435       5.652       3.156      6.6228E-03
   6   10.000       9.944       9.848       9.656       9.279       8.592       7.435       5.652       3.156      6.6228E-03
   7   10.000       9.944       9.848       9.656       9.279       8.592       7.435       5.652       3.156      6.6228E-03
   8   10.000       9.944       9.848       9.656       9.279       8.592       7.435       5.652       3.156      6.6228E-03
   9   10.000       9.944       9.848       9.656       9.279       8.592       7.435       5.652       3.156      6.6228E-03
  10   10.000       9.944       9.848       9.656       9.279       8.592       7.435       5.652       3.156      6.6228E-03
1
              HEAD IN LAYER   3 AT END OF TIME STEP  70 IN STRESS PERIOD    2
  ---------------------------------------------------------------------------

            1           2           3           4           5           6           7           8           9          10
 ........................................................................................................................
   1   10.000       9.942       9.844       9.648       9.267       8.573       7.410       5.623       3.130      7.3798E-03
   2   10.000       9.942       9.844       9.648       9.267       8.573       7.410       5.623       3.130      7.3798E-03
   3   10.000       9.942       9.844       9.648       9.267       8.573       7.410       5.623       3.130      7.3798E-03
   4   10.000       9.942       9.844       9.648       9.267       8.573       7.410       5.623       3.130      7.3798E-03
   5   10.000       9.942       9.844       9.648       9.267       8.573       7.410       5.623       3.130      7.3798E-03
   6   10.000       9.942       9.844       9.648       9.267       8.573       7.410       5.623       3.130      7.3798E-03
   7   10.000       9.942       9.844       9.648       9.267       8.573       7.410       5.623       3.130      7.3798E-03
   8   10.000       9.942       9.844       9.648       9.267       8.573       7.410       5.623       3.130      7.3798E-03
   9   10.000       9.942       9.844       9.648       9.267       8.573       7.410       5.623       3.130      7.3798E-03
  10   10.000       9.942       9.844       9.648       9.267       8.573       7.410       5.623       3.130      7.3798E-03
1
              HEAD IN LAYER   4 AT END OF TIME STEP  70 IN STRESS PERIOD    2
  ---------------------------------------------------------------------------

            1           2           3           4           5           6           7           8           9          10
 ........................................................................................................................
   1   10.000       9.941       9.841       9.643       9.258       8.560       7.393       5.604       3.113      7.4428E-03
   2   10.000       9.941       9.841       9.643       9.258       8.560       7.393       5.604       3.113      7.4428E-03
   3   10.000       9.941       9.841       9.643       9.258       8.560       7.393       5.604       3.113      7.4428E-03
   4   10.000       9.941       9.841       9.643       9.258       8.560       7.393       5.604       3.113      7.4428E-03
   5   10.000       9.941       9.841       9.643       9.258       8.560       7.393       5.604       3.113      7.4428E-03
   6   10.000       9.941       9.841       9.643       9.258       8.560       7.393       5.604       3.113      7.4428E-03
   7   10.000       9.941       9.841       9.643       9.258       8.560       7.393       5.604       3.113      7.4428E-03
   8   10.000       9.941       9.841       9.643       9.258       8.560       7.393       5.604       3.113      7.4428E-03
   9   10.000       9.941       9.841       9.643       9.258       8.560       7.393       5.604       3.113      7.4428E-03
  10   10.000       9.941       9.841       9.643       9.258       8.560       7.393       5.604       3.113      7.4428E-03
1
              HEAD IN LAYER   5 AT END OF TIME STEP  70 IN STRESS PERIOD    2
  ---------------------------------------------------------------------------

            1           2           3           4           5           6           7           8           9          10
 ........................................................................................................................
   1   10.000       9.941       9.840       9.640       9.254       8.554       7.384       5.594       3.105      7.4355E-03
   2   10.000       9.941       9.840       9.640       9.254       8.554       7.384       5.594       3.105      7.4355E-03
   3   10.000       9.941       9.840       9.640       9.254       8.554       7.384       5.594       3.105      7.4355E-03
   4   10.000       9.941       9.840       9.640       9.254       8.554       7.384       5.594       3.105      7.4355E-03
   5   10.000       9.941       9.840       9.640       9.254       8.554       7.384       5.594       3.105      7.4355E-03
   6   10.000       9.941       9.840       9.640       9.254       8.554       7.384       5.594       3.105      7.4355E-03
   7   10.000       9.941       9.840       9.640       9.254       8.554       7.384       5.594       3.105      7.4355E-03
   8   10.000       9.941       9.840       9.640       9.254       8.554       7.384       5.594       3.105      7.4355E-03
   9   10.000       9.941       9.840       9.640       9.254       8.554       7.384       5.594       3.105      7.4355E-03
  10   10.000       9.941       9.840       9.640       9.254       8.554       7.384       5.594       3.105      7.4355E-03

 HEAD WILL BE SAVED ON UNIT   51 AT END OF TIME STEP   70, STRESS PERIOD    2

 DRAWDOWN WILL BE SAVED ON UNIT   52 AT END OF TIME STEP   70, STRESS PERIOD    2
1
  VOLUMETRIC BUDGET FOR ENTIRE MODEL AT END OF TIME STEP   70, STRESS PERIOD   2
  ------------------------------------------------------------------------------

     CUMULATIVE VOLUMES      L**3       RATES FOR THIS TIME STEP      L**3/T
     ------------------                 ------------------------

           IN:                                      IN:
           ---                                      ---
             STORAGE =      275644.7188               STORAGE =        1555.0697
       CONSTANT HEAD =           0.0000         CONSTANT HEAD =           0.0000
               WELLS =           0.0000                 WELLS =           0.0000
     HEAD DEP BOUNDS =         582.9695       HEAD DEP BOUNDS =          34.0970

            TOTAL IN =      276227.6875              TOTAL IN =        1589.1667

          OUT:                                     OUT:
          ----                                     ----
             STORAGE =           0.0000               STORAGE =           0.0000
       CONSTANT HEAD =           0.0000         CONSTANT HEAD =           0.0000
               WELLS =           0.0000                 WELLS =           0.0000
     HEAD DEP BOUNDS =      276228.7812       HEAD DEP BOUNDS =        1589.2166

           TOTAL OUT =      276228.7812             TOTAL OUT =        1589.2166

            IN - OUT =          -1.0938              IN - OUT =      -4.9805E-02

 PERCENT DISCREPANCY =          -0.00     PERCENT DISCREPANCY =          -0.00






         TIME SUMMARY AT END OF TIME STEP   70 IN STRESS PERIOD    2
                    SECONDS     MINUTES      HOURS       DAYS        YEARS
                    -----------------------------------------------------------
   TIME STEP LENGTH  86400.      1440.0      24.000      1.0000     2.73785E-03
 STRESS PERIOD TIME 6.04800E+06 1.00800E+05  1680.0      70.000     0.19165    
         TOTAL TIME 6.13440E+06 1.02240E+05  1704.0      71.000     0.19439    
1
 
 SOLVING FOR HEAD 

 OUTPUT CONTROL FOR STRESS PERIOD    2   TIME STEP   71
    SAVE HEAD FOR ALL LAYERS
    SAVE DRAWDOWN FOR ALL LAYERS
    SAVE BUDGET
    PRINT HEAD FOR ALL LAYERS
    PRINT BUDGET
 UBDSV1 SAVING "         STORAGE" ON UNIT  53 AT TIME STEP 71, STRESS PERIOD   2
 UBDSV2 SAVING "   CONSTANT HEAD" ON UNIT  53 AT TIME STEP 71, STRESS PERIOD   2
 UBDSV1 SAVING "FLOW RIGHT FACE " ON UNIT  53 AT TIME STEP 71, STRESS PERIOD   2
 UBDSV1 SAVING "FLOW FRONT FACE " ON UNIT  53 AT TIME STEP 71, STRESS PERIOD   2
 UBDSV1 SAVING "FLOW LOWER FACE " ON UNIT  53 AT TIME STEP 71, STRESS PERIOD   2
1
              HEAD IN LAYER   1 AT END OF TIME STEP  71 IN STRESS PERIOD    2
  ---------------------------------------------------------------------------

            1           2           3           4           5           6           7           8           9          10
 ........................................................................................................................
   1   10.000       9.944       9.848       9.655       9.279       8.591       7.434       5.652       3.159      2.8814E-03
   2   10.000       9.944       9.848       9.655       9.279       8.591       7.434       5.652       3.159      2.8814E-03
   3   10.000       9.944       9.848       9.655       9.279       8.591       7.434       5.652       3.159      2.8814E-03
   4   10.000       9.944       9.848       9.655       9.279       8.591       7.434       5.652       3.159      2.8814E-03
   5   10.000       9.944       9.848       9.655       9.279       8.591       7.434       5.652       3.159      2.8814E-03
   6   10.000       9.944       9.848       9.655       9.279       8.591       7.434       5.652       3.159      2.8814E-03
   7   10.000       9.944       9.848       9.655       9.279       8.591       7.434       5.652       3.159      2.8814E-03
   8   10.000       9.944       9.848       9.655       9.279       8.591       7.434       5.652       3.159      2.8814E-03
   9   10.000       9.944       9.848       9.655       9.279       8.591       7.434       5.652       3.159      2.8814E-03
  10   10.000       9.944       9.848       9.655       9.279       8.591       7.434       5.652       3.159      2.8814E-03
1
              HEAD IN LAYER   2 AT END OF TIME STEP  71 IN STRESS PERIOD    2
  ---------------------------------------------------------------------------

            1           2           3           4           5           6           7           8           9          10
 ........................................................................................................................
   1   10.000       9.942       9.842       9.645       9.262       8.567       7.404       5.620       3.134      6.5768E-03
   2   10.000       9.942       9.842       9.645       9.262       8.567       7.404       5.620       3.134      6.5768E-03
   3   10.000       9.942       9.842       9.645       9.262       8.567       7.404       5.620       3.134      6.5768E-03
   4   10.000       9.942       9.842       9.645       9.262       8.567       7.404       5.620       3.134      6.5768E-03
   5   10.000       9.942       9.842       9.645       9.262       8.567       7.404       5.620       3.134      6.5768E-03
   6   10.000       9.942       9.842       9.645       9.262       8.567       7.404       5.620       3.134      6.5768E-03
   7   10.000       9.942       9.842       9.645       9.262       8.567       7.404       5.620       3.134      6.5768E-03
   8   10.000       9.942       9.842       9.645       9.262       8.567       7.404       5.620       3.134      6.5768E-03
   9   10.000       9.942       9.842       9.645       9.262       8.567       7.404       5.620       3.134      6.5768E-03
  10   10.000       9.942       9.842       9.645       9.262       8.567       7.404       5.620       3.134      6.5768E-03
1
              HEAD IN LAYER   3 AT END OF TIME STEP  71 IN STRESS PERIOD    2
  ---------------------------------------------------------------------------

            1           2           3           4           5           6           7           8           9          10
 ........................................................................................................................
   1   10.000       9.940       9.838       9.637       9.249       8.548       7.379       5.592       3.109      7.3295E-03
   2   10.000       9.940       9.838       9.637       9.249       8.548       7.379       5.592       3.109      7.3295E-03
   3   10.000       9.940       9.838       9.637       9.249       8.548       7.379       5.592       3.109      7.3295E-03
   4   10.000       9.940       9.838       9.637       9.249       8.548       7.379       5.592       3.109      7.3295E-03
   5   10.000       9.940       9.838       9.637       9.249       8.548       7.379       5.592       3.109      7.3295E-03
   6   10.000       9.940       9.838       9.637       9.249       8.548       7.379       5.592       3.109      7.3295E-03
   7   10.000       9.940       9.838       9.637       9.249       8.548       7.379       5.592       3.109      7.3295E-03
   8   10.000       9.940       9.838       9.637       9.249       8.548       7.379       5.592       3.109      7.3295E-03
   9   10.000       9.940       9.838       9.637       9.249       8.548       7.379       5.592       3.109      7.3295E-03
  10   10.000       9.940       9.838       9.637       9.249       8.548       7.379       5.592       3.109      7.3295E-03
1
              HEAD IN LAYER   4 AT END OF TIME STEP  71 IN STRESS PERIOD    2
  ---------------------------------------------------------------------------

            1           2           3           4           5           6           7           8           9          10
 ........................................................................................................................
   1   10.000       9.939       9.836       9.632       9.241       8.535       7.362       5.573       3.092      7.3925E-03
   2   10.000       9.939       9.836       9.632       9.241       8.535       7.362       5.573       3.092      7.3925E-03
   3   10.000       9.939       9.836       9.632       9.241       8.535       7.362       5.573       3.092      7.3925E-03
   4   10.000       9.939       9.836       9.632       9.241       8.535       7.362       5.573       3.092      7.3925E-03
   5   10.000       9.939       9.836       9.632       9.241       8.535       7.362       5.573       3.092      7.3925E-03
   6   10.000       9.939       9.836       9.632       9.241       8.535       7.362       5.573       3.092      7.3925E-03
   7   10.000       9.939       9.836       9.632       9.241       8.535       7.362       5.573       3.092      7.3925E-03
   8   10.000       9.939       9.836       9.632       9.241       8.535       7.362       5.573       3.092      7.3925E-03
   9   10.000       9.939       9.836       9.632       9.241       8.535       7.362       5.573       3.092      7.3925E-03
  10   10.000       9.939       9.836       9.632       9.241       8.535       7.362       5.573       3.092      7.3925E-03
1
              HEAD IN LAYER   5 AT END OF TIME STEP  71 IN STRESS PERIOD    2
  ---------------------------------------------------------------------------

            1           2           3           4           5           6           7           8           9          10
 ........................................................................................................................
   1   10.000       9.938       9.834       9.630       9.236       8.529       7.354       5.563       3.084      7.3854E-03
   2   10.000       9.938       9.834       9.630       9.236       8.529       7.354       5.563       3.084      7.3854E-03
   3   10.000       9.938       9.834       9.630       9.236       8.529       7.354       5.563       3.084      7.3854E-03
   4   10.000       9.938       9.834       9.630       9.236       8.529       7.354       5.563       3.084      7.3854E-03
   5   10.000       9.938       9.834       9.630       9.236       8.529       7.354       5.563       3.084      7.3854E-03
   6   10.000       9.938       9.834       9.630       9.236       8.529       7.354       5.563       3.084      7.3854E-03
   7   10.000       9.938       9.834       9.630       9.236       8.529       7.354       5.563       3.084      7.3854E-03
   8   10.000       9.938       9.834       9.630       9.236       8.529       7.354       5.563       3.084      7.3854E-03
   9   10.000       9.938       9.834       9.630       9.236       8.529       7.354       5.563       3.084      7.3854E-03
  10   10.000       9.938       9.834       9.630       9.236       8.529       7.354       5.563       3.084      7.3854E-03

 HEAD WILL BE SAVED ON UNIT   51 AT END OF TIME STEP   71, STRESS PERIOD    2

 DRAWDOWN WILL BE SAVED ON UNIT   52 AT END OF TIME STEP   71, STRESS PERIOD    2
1
  VOLUMETRIC BUDGET FOR ENTIRE MODEL AT END OF TIME STEP   71, STRESS PERIOD   2
  ------------------------------------------------------------------------------

     CUMULATIVE VOLUMES      L**3       RATES FOR THIS TIME STEP      L**3/T
     ------------------                 ------------------------

           IN:                                      IN:
           ---                                      ---
             STORAGE =      277187.3750               STORAGE =        1542.6624
       CONSTANT HEAD =           0.0000         CONSTANT HEAD =           0.0000
               WELLS =           0.0000                 WELLS =           0.0000
     HEAD DEP BOUNDS =         618.5445       HEAD DEP BOUNDS =          35.5750

            TOTAL IN =      277805.9062              TOTAL IN =        1578.2374

          OUT:                                     OUT:
          ----                                     ----
             STORAGE =           0.0000               STORAGE =           0.0000
       CONSTANT HEAD =           0.0000         CONSTANT HEAD =           0.0000
               WELLS =           0.0000                 WELLS =           0.0000
     HEAD DEP BOUNDS =      277807.0625       HEAD DEP BOUNDS =        1578.2750

           TOTAL OUT =      277807.0625             TOTAL OUT =        1578.2750

            IN - OUT =          -1.1562              IN - OUT =      -3.7598E-02

 PERCENT DISCREPANCY =          -0.00     PERCENT DISCREPANCY =          -0.00






         TIME SUMMARY AT END OF TIME STEP   71 IN STRESS PERIOD    2
                    SECONDS     MINUTES      HOURS       DAYS        YEARS
                    -----------------------------------------------------------
   TIME STEP LENGTH  86400.      1440.0      24.000      1.0000     2.73785E-03
 STRESS PERIOD TIME 6.13440E+06 1.02240E+05  1704.0      71.000     0.19439    
         TOTAL TIME 6.22080E+06 1.03680E+05  1728.0      72.000     0.19713    
1
 
 SOLVING FOR HEAD 

 OUTPUT CONTROL FOR STRESS PERIOD    2   TIME STEP   72
    SAVE HEAD FOR ALL LAYERS
    SAVE DRAWDOWN FOR ALL LAYERS
    SAVE BUDGET
    PRINT HEAD FOR ALL LAYERS
    PRINT BUDGET
 UBDSV1 SAVING "         STORAGE" ON UNIT  53 AT TIME STEP 72, STRESS PERIOD   2
 UBDSV2 SAVING "   CONSTANT HEAD" ON UNIT  53 AT TIME STEP 72, STRESS PERIOD   2
 UBDSV1 SAVING "FLOW RIGHT FACE " ON UNIT  53 AT TIME STEP 72, STRESS PERIOD   2
 UBDSV1 SAVING "FLOW FRONT FACE " ON UNIT  53 AT TIME STEP 72, STRESS PERIOD   2
 UBDSV1 SAVING "FLOW LOWER FACE " ON UNIT  53 AT TIME STEP 72, STRESS PERIOD   2
1
              HEAD IN LAYER   1 AT END OF TIME STEP  72 IN STRESS PERIOD    2
  ---------------------------------------------------------------------------

            1           2           3           4           5           6           7           8           9          10
 ........................................................................................................................
   1   10.000       9.941       9.842       9.644       9.261       8.566       7.403       5.620       3.137      2.8597E-03
   2   10.000       9.941       9.842       9.644       9.261       8.566       7.403       5.620       3.137      2.8597E-03
   3   10.000       9.941       9.842       9.644       9.261       8.566       7.403       5.620       3.137      2.8597E-03
   4   10.000       9.941       9.842       9.644       9.261       8.566       7.403       5.620       3.137      2.8597E-03
   5   10.000       9.941       9.842       9.644       9.261       8.566       7.403       5.620       3.137      2.8597E-03
   6   10.000       9.941       9.842       9.644       9.261       8.566       7.403       5.620       3.137      2.8597E-03
   7   10.000       9.941       9.842       9.644       9.261       8.566       7.403       5.620       3.137      2.8597E-03
   8   10.000       9.941       9.842       9.644       9.261       8.566       7.403       5.620       3.137      2.8597E-03
   9   10.000       9.941       9.842       9.644       9.261       8.566       7.403       5.620       3.137      2.8597E-03
  10   10.000       9.941       9.842       9.644       9.261       8.566       7.403       5.620       3.137      2.8597E-03
1
              HEAD IN LAYER   2 AT END OF TIME STEP  72 IN STRESS PERIOD    2
  ---------------------------------------------------------------------------

            1           2           3           4           5           6           7           8           9          10
 ........................................................................................................................
   1   10.000       9.939       9.837       9.634       9.245       8.542       7.373       5.589       3.113      6.5316E-03
   2   10.000       9.939       9.837       9.634       9.245       8.542       7.373       5.589       3.113      6.5316E-03
   3   10.000       9.939       9.837       9.634       9.245       8.542       7.373       5.589       3.113      6.5316E-03
   4   10.000       9.939       9.837       9.634       9.245       8.542       7.373       5.589       3.113      6.5316E-03
   5   10.000       9.939       9.837       9.634       9.245       8.542       7.373       5.589       3.113      6.5316E-03
   6   10.000       9.939       9.837       9.634       9.245       8.542       7.373       5.589       3.113      6.5316E-03
   7   10.000       9.939       9.837       9.634       9.245       8.542       7.373       5.589       3.113      6.5316E-03
   8   10.000       9.939       9.837       9.634       9.245       8.542       7.373       5.589       3.113      6.5316E-03
   9   10.000       9.939       9.837       9.634       9.245       8.542       7.373       5.589       3.113      6.5316E-03
  10   10.000       9.939       9.837       9.634       9.245       8.542       7.373       5.589       3.113      6.5316E-03
1
              HEAD IN LAYER   3 AT END OF TIME STEP  72 IN STRESS PERIOD    2
  ---------------------------------------------------------------------------

            1           2           3           4           5           6           7           8           9          10
 ........................................................................................................................
   1   10.000       9.937       9.832       9.627       9.232       8.523       7.348       5.561       3.088      7.2801E-03
   2   10.000       9.937       9.832       9.627       9.232       8.523       7.348       5.561       3.088      7.2801E-03
   3   10.000       9.937       9.832       9.627       9.232       8.523       7.348       5.561       3.088      7.2801E-03
   4   10.000       9.937       9.832       9.627       9.232       8.523       7.348       5.561       3.088      7.2801E-03
   5   10.000       9.937       9.832       9.627       9.232       8.523       7.348       5.561       3.088      7.2801E-03
   6   10.000       9.937       9.832       9.627       9.232       8.523       7.348       5.561       3.088      7.2801E-03
   7   10.000       9.937       9.832       9.627       9.232       8.523       7.348       5.561       3.088      7.2801E-03
   8   10.000       9.937       9.832       9.627       9.232       8.523       7.348       5.561       3.088      7.2801E-03
   9   10.000       9.937       9.832       9.627       9.232       8.523       7.348       5.561       3.088      7.2801E-03
  10   10.000       9.937       9.832       9.627       9.232       8.523       7.348       5.561       3.088      7.2801E-03
1
              HEAD IN LAYER   4 AT END OF TIME STEP  72 IN STRESS PERIOD    2
  ---------------------------------------------------------------------------

            1           2           3           4           5           6           7           8           9          10
 ........................................................................................................................
   1   10.000       9.936       9.830       9.621       9.223       8.510       7.331       5.542       3.072      7.3432E-03
   2   10.000       9.936       9.830       9.621       9.223       8.510       7.331       5.542       3.072      7.3432E-03
   3   10.000       9.936       9.830       9.621       9.223       8.510       7.331       5.542       3.072      7.3432E-03
   4   10.000       9.936       9.830       9.621       9.223       8.510       7.331       5.542       3.072      7.3432E-03
   5   10.000       9.936       9.830       9.621       9.223       8.510       7.331       5.542       3.072      7.3432E-03
   6   10.000       9.936       9.830       9.621       9.223       8.510       7.331       5.542       3.072      7.3432E-03
   7   10.000       9.936       9.830       9.621       9.223       8.510       7.331       5.542       3.072      7.3432E-03
   8   10.000       9.936       9.830       9.621       9.223       8.510       7.331       5.542       3.072      7.3432E-03
   9   10.000       9.936       9.830       9.621       9.223       8.510       7.331       5.542       3.072      7.3432E-03
  10   10.000       9.936       9.830       9.621       9.223       8.510       7.331       5.542       3.072      7.3432E-03
1
              HEAD IN LAYER   5 AT END OF TIME STEP  72 IN STRESS PERIOD    2
  ---------------------------------------------------------------------------

            1           2           3           4           5           6           7           8           9          10
 ........................................................................................................................
   1   10.000       9.936       9.828       9.619       9.219       8.504       7.323       5.533       3.064      7.3364E-03
   2   10.000       9.936       9.828       9.619       9.219       8.504       7.323       5.533       3.064      7.3364E-03
   3   10.000       9.936       9.828       9.619       9.219       8.504       7.323       5.533       3.064      7.3364E-03
   4   10.000       9.936       9.828       9.619       9.219       8.504       7.323       5.533       3.064      7.3364E-03
   5   10.000       9.936       9.828       9.619       9.219       8.504       7.323       5.533       3.064      7.3364E-03
   6   10.000       9.936       9.828       9.619       9.219       8.504       7.323       5.533       3.064      7.3364E-03
   7   10.000       9.936       9.828       9.619       9.219       8.504       7.323       5.533       3.064      7.3364E-03
   8   10.000       9.936       9.828       9.619       9.219       8.504       7.323       5.533       3.064      7.3364E-03
   9   10.000       9.936       9.828       9.619       9.219       8.504       7.323       5.533       3.064      7.3364E-03
  10   10.000       9.936       9.828       9.619       9.219       8.504       7.323       5.533       3.064      7.3364E-03

 HEAD WILL BE SAVED ON UNIT   51 AT END OF TIME STEP   72, STRESS PERIOD    2

 DRAWDOWN WILL BE SAVED ON UNIT   52 AT END OF TIME STEP   72, STRESS PERIOD    2
1
  VOLUMETRIC BUDGET FOR ENTIRE MODEL AT END OF TIME STEP   72, STRESS PERIOD   2
  ------------------------------------------------------------------------------

     CUMULATIVE VOLUMES      L**3       RATES FOR THIS TIME STEP      L**3/T
     ------------------                 ------------------------

           IN:                                      IN:
           ---                                      ---
             STORAGE =      278717.8125               STORAGE =        1530.4462
       CONSTANT HEAD =           0.0000         CONSTANT HEAD =           0.0000
               WELLS =           0.0000                 WELLS =           0.0000
     HEAD DEP BOUNDS =         655.5582       HEAD DEP BOUNDS =          37.0136

            TOTAL IN =      279373.3750              TOTAL IN =        1567.4598

          OUT:                                     OUT:
          ----                                     ----
             STORAGE =           0.0000               STORAGE =           0.0000
       CONSTANT HEAD =           0.0000         CONSTANT HEAD =           0.0000
               WELLS =           0.0000                 WELLS =           0.0000
     HEAD DEP BOUNDS =      279374.6250       HEAD DEP BOUNDS =        1567.5486

           TOTAL OUT =      279374.6250             TOTAL OUT =        1567.5486

            IN - OUT =          -1.2500              IN - OUT =      -8.8745E-02

 PERCENT DISCREPANCY =          -0.00     PERCENT DISCREPANCY =          -0.01






         TIME SUMMARY AT END OF TIME STEP   72 IN STRESS PERIOD    2
                    SECONDS     MINUTES      HOURS       DAYS        YEARS
                    -----------------------------------------------------------
   TIME STEP LENGTH  86400.      1440.0      24.000      1.0000     2.73785E-03
 STRESS PERIOD TIME 6.22080E+06 1.03680E+05  1728.0      72.000     0.19713    
         TOTAL TIME 6.30720E+06 1.05120E+05  1752.0      73.000     0.19986    
1
 
 SOLVING FOR HEAD 

 OUTPUT CONTROL FOR STRESS PERIOD    2   TIME STEP   73
    SAVE HEAD FOR ALL LAYERS
    SAVE DRAWDOWN FOR ALL LAYERS
    SAVE BUDGET
    PRINT HEAD FOR ALL LAYERS
    PRINT BUDGET
 UBDSV1 SAVING "         STORAGE" ON UNIT  53 AT TIME STEP 73, STRESS PERIOD   2
 UBDSV2 SAVING "   CONSTANT HEAD" ON UNIT  53 AT TIME STEP 73, STRESS PERIOD   2
 UBDSV1 SAVING "FLOW RIGHT FACE " ON UNIT  53 AT TIME STEP 73, STRESS PERIOD   2
 UBDSV1 SAVING "FLOW FRONT FACE " ON UNIT  53 AT TIME STEP 73, STRESS PERIOD   2
 UBDSV1 SAVING "FLOW LOWER FACE " ON UNIT  53 AT TIME STEP 73, STRESS PERIOD   2
1
              HEAD IN LAYER   1 AT END OF TIME STEP  73 IN STRESS PERIOD    2
  ---------------------------------------------------------------------------

            1           2           3           4           5           6           7           8           9          10
 ........................................................................................................................
   1   10.000       9.939       9.836       9.634       9.244       8.541       7.372       5.589       3.116      2.8388E-03
   2   10.000       9.939       9.836       9.634       9.244       8.541       7.372       5.589       3.116      2.8388E-03
   3   10.000       9.939       9.836       9.634       9.244       8.541       7.372       5.589       3.116      2.8388E-03
   4   10.000       9.939       9.836       9.634       9.244       8.541       7.372       5.589       3.116      2.8388E-03
   5   10.000       9.939       9.836       9.634       9.244       8.541       7.372       5.589       3.116      2.8388E-03
   6   10.000       9.939       9.836       9.634       9.244       8.541       7.372       5.589       3.116      2.8388E-03
   7   10.000       9.939       9.836       9.634       9.244       8.541       7.372       5.589       3.116      2.8388E-03
   8   10.000       9.939       9.836       9.634       9.244       8.541       7.372       5.589       3.116      2.8388E-03
   9   10.000       9.939       9.836       9.634       9.244       8.541       7.372       5.589       3.116      2.8388E-03
  10   10.000       9.939       9.836       9.634       9.244       8.541       7.372       5.589       3.116      2.8388E-03
1
              HEAD IN LAYER   2 AT END OF TIME STEP  73 IN STRESS PERIOD    2
  ---------------------------------------------------------------------------

            1           2           3           4           5           6           7           8           9          10
 ........................................................................................................................
   1   10.000       9.937       9.831       9.623       9.227       8.517       7.342       5.559       3.092      6.4874E-03
   2   10.000       9.937       9.831       9.623       9.227       8.517       7.342       5.559       3.092      6.4874E-03
   3   10.000       9.937       9.831       9.623       9.227       8.517       7.342       5.559       3.092      6.4874E-03
   4   10.000       9.937       9.831       9.623       9.227       8.517       7.342       5.559       3.092      6.4874E-03
   5   10.000       9.937       9.831       9.623       9.227       8.517       7.342       5.559       3.092      6.4874E-03
   6   10.000       9.937       9.831       9.623       9.227       8.517       7.342       5.559       3.092      6.4874E-03
   7   10.000       9.937       9.831       9.623       9.227       8.517       7.342       5.559       3.092      6.4874E-03
   8   10.000       9.937       9.831       9.623       9.227       8.517       7.342       5.559       3.092      6.4874E-03
   9   10.000       9.937       9.831       9.623       9.227       8.517       7.342       5.559       3.092      6.4874E-03
  10   10.000       9.937       9.831       9.623       9.227       8.517       7.342       5.559       3.092      6.4874E-03
1
              HEAD IN LAYER   3 AT END OF TIME STEP  73 IN STRESS PERIOD    2
  ---------------------------------------------------------------------------

            1           2           3           4           5           6           7           8           9          10
 ........................................................................................................................
   1   10.000       9.935       9.826       9.616       9.214       8.498       7.318       5.531       3.068      7.2317E-03
   2   10.000       9.935       9.826       9.616       9.214       8.498       7.318       5.531       3.068      7.2317E-03
   3   10.000       9.935       9.826       9.616       9.214       8.498       7.318       5.531       3.068      7.2317E-03
   4   10.000       9.935       9.826       9.616       9.214       8.498       7.318       5.531       3.068      7.2317E-03
   5   10.000       9.935       9.826       9.616       9.214       8.498       7.318       5.531       3.068      7.2317E-03
   6   10.000       9.935       9.826       9.616       9.214       8.498       7.318       5.531       3.068      7.2317E-03
   7   10.000       9.935       9.826       9.616       9.214       8.498       7.318       5.531       3.068      7.2317E-03
   8   10.000       9.935       9.826       9.616       9.214       8.498       7.318       5.531       3.068      7.2317E-03
   9   10.000       9.935       9.826       9.616       9.214       8.498       7.318       5.531       3.068      7.2317E-03
  10   10.000       9.935       9.826       9.616       9.214       8.498       7.318       5.531       3.068      7.2317E-03
1
              HEAD IN LAYER   4 AT END OF TIME STEP  73 IN STRESS PERIOD    2
  ---------------------------------------------------------------------------

            1           2           3           4           5           6           7           8           9          10
 ........................................................................................................................
   1   10.000       9.934       9.824       9.610       9.206       8.486       7.301       5.512       3.052      7.2948E-03
   2   10.000       9.934       9.824       9.610       9.206       8.486       7.301       5.512       3.052      7.2948E-03
   3   10.000       9.934       9.824       9.610       9.206       8.486       7.301       5.512       3.052      7.2948E-03
   4   10.000       9.934       9.824       9.610       9.206       8.486       7.301       5.512       3.052      7.2948E-03
   5   10.000       9.934       9.824       9.610       9.206       8.486       7.301       5.512       3.052      7.2948E-03
   6   10.000       9.934       9.824       9.610       9.206       8.486       7.301       5.512       3.052      7.2948E-03
   7   10.000       9.934       9.824       9.610       9.206       8.486       7.301       5.512       3.052      7.2948E-03
   8   10.000       9.934       9.824       9.610       9.206       8.486       7.301       5.512       3.052      7.2948E-03
   9   10.000       9.934       9.824       9.610       9.206       8.486       7.301       5.512       3.052      7.2948E-03
  10   10.000       9.934       9.824       9.610       9.206       8.486       7.301       5.512       3.052      7.2948E-03
1
              HEAD IN LAYER   5 AT END OF TIME STEP  73 IN STRESS PERIOD    2
  ---------------------------------------------------------------------------

            1           2           3           4           5           6           7           8           9          10
 ........................................................................................................................
   1   10.000       9.933       9.822       9.608       9.201       8.479       7.293       5.503       3.044      7.2882E-03
   2   10.000       9.933       9.822       9.608       9.201       8.479       7.293       5.503       3.044      7.2882E-03
   3   10.000       9.933       9.822       9.608       9.201       8.479       7.293       5.503       3.044      7.2882E-03
   4   10.000       9.933       9.822       9.608       9.201       8.479       7.293       5.503       3.044      7.2882E-03
   5   10.000       9.933       9.822       9.608       9.201       8.479       7.293       5.503       3.044      7.2882E-03
   6   10.000       9.933       9.822       9.608       9.201       8.479       7.293       5.503       3.044      7.2882E-03
   7   10.000       9.933       9.822       9.608       9.201       8.479       7.293       5.503       3.044      7.2882E-03
   8   10.000       9.933       9.822       9.608       9.201       8.479       7.293       5.503       3.044      7.2882E-03
   9   10.000       9.933       9.822       9.608       9.201       8.479       7.293       5.503       3.044      7.2882E-03
  10   10.000       9.933       9.822       9.608       9.201       8.479       7.293       5.503       3.044      7.2882E-03

 HEAD WILL BE SAVED ON UNIT   51 AT END OF TIME STEP   73, STRESS PERIOD    2

 DRAWDOWN WILL BE SAVED ON UNIT   52 AT END OF TIME STEP   73, STRESS PERIOD    2
1
  VOLUMETRIC BUDGET FOR ENTIRE MODEL AT END OF TIME STEP   73, STRESS PERIOD   2
  ------------------------------------------------------------------------------

     CUMULATIVE VOLUMES      L**3       RATES FOR THIS TIME STEP      L**3/T
     ------------------                 ------------------------

           IN:                                      IN:
           ---                                      ---
             STORAGE =      280236.2500               STORAGE =        1518.4412
       CONSTANT HEAD =           0.0000         CONSTANT HEAD =           0.0000
               WELLS =           0.0000                 WELLS =           0.0000
     HEAD DEP BOUNDS =         694.1061       HEAD DEP BOUNDS =          38.5480

            TOTAL IN =      280930.3438              TOTAL IN =        1556.9891

          OUT:                                     OUT:
          ----                                     ----
             STORAGE =           0.0000               STORAGE =           0.0000
       CONSTANT HEAD =           0.0000         CONSTANT HEAD =           0.0000
               WELLS =           0.0000                 WELLS =           0.0000
     HEAD DEP BOUNDS =      280931.6562       HEAD DEP BOUNDS =        1557.0466

           TOTAL OUT =      280931.6562             TOTAL OUT =        1557.0466

            IN - OUT =          -1.3125              IN - OUT =      -5.7495E-02

 PERCENT DISCREPANCY =          -0.00     PERCENT DISCREPANCY =          -0.00






         TIME SUMMARY AT END OF TIME STEP   73 IN STRESS PERIOD    2
                    SECONDS     MINUTES      HOURS       DAYS        YEARS
                    -----------------------------------------------------------
   TIME STEP LENGTH  86400.      1440.0      24.000      1.0000     2.73785E-03
 STRESS PERIOD TIME 6.30720E+06 1.05120E+05  1752.0      73.000     0.19986    
         TOTAL TIME 6.39360E+06 1.06560E+05  1776.0      74.000     0.20260    
1
 
 SOLVING FOR HEAD 

 OUTPUT CONTROL FOR STRESS PERIOD    2   TIME STEP   74
    SAVE HEAD FOR ALL LAYERS
    SAVE DRAWDOWN FOR ALL LAYERS
    SAVE BUDGET
    PRINT HEAD FOR ALL LAYERS
    PRINT BUDGET
 UBDSV1 SAVING "         STORAGE" ON UNIT  53 AT TIME STEP 74, STRESS PERIOD   2
 UBDSV2 SAVING "   CONSTANT HEAD" ON UNIT  53 AT TIME STEP 74, STRESS PERIOD   2
 UBDSV1 SAVING "FLOW RIGHT FACE " ON UNIT  53 AT TIME STEP 74, STRESS PERIOD   2
 UBDSV1 SAVING "FLOW FRONT FACE " ON UNIT  53 AT TIME STEP 74, STRESS PERIOD   2
 UBDSV1 SAVING "FLOW LOWER FACE " ON UNIT  53 AT TIME STEP 74, STRESS PERIOD   2
1
              HEAD IN LAYER   1 AT END OF TIME STEP  74 IN STRESS PERIOD    2
  ---------------------------------------------------------------------------

            1           2           3           4           5           6           7           8           9          10
 ........................................................................................................................
   1   10.000       9.936       9.830       9.623       9.226       8.516       7.341       5.558       3.095      2.8180E-03
   2   10.000       9.936       9.830       9.623       9.226       8.516       7.341       5.558       3.095      2.8180E-03
   3   10.000       9.936       9.830       9.623       9.226       8.516       7.341       5.558       3.095      2.8180E-03
   4   10.000       9.936       9.830       9.623       9.226       8.516       7.341       5.558       3.095      2.8180E-03
   5   10.000       9.936       9.830       9.623       9.226       8.516       7.341       5.558       3.095      2.8180E-03
   6   10.000       9.936       9.830       9.623       9.226       8.516       7.341       5.558       3.095      2.8180E-03
   7   10.000       9.936       9.830       9.623       9.226       8.516       7.341       5.558       3.095      2.8180E-03
   8   10.000       9.936       9.830       9.623       9.226       8.516       7.341       5.558       3.095      2.8180E-03
   9   10.000       9.936       9.830       9.623       9.226       8.516       7.341       5.558       3.095      2.8180E-03
  10   10.000       9.936       9.830       9.623       9.226       8.516       7.341       5.558       3.095      2.8180E-03
1
              HEAD IN LAYER   2 AT END OF TIME STEP  74 IN STRESS PERIOD    2
  ---------------------------------------------------------------------------

            1           2           3           4           5           6           7           8           9          10
 ........................................................................................................................
   1   10.000       9.934       9.825       9.613       9.210       8.492       7.312       5.528       3.072      6.4441E-03
   2   10.000       9.934       9.825       9.613       9.210       8.492       7.312       5.528       3.072      6.4441E-03
   3   10.000       9.934       9.825       9.613       9.210       8.492       7.312       5.528       3.072      6.4441E-03
   4   10.000       9.934       9.825       9.613       9.210       8.492       7.312       5.528       3.072      6.4441E-03
   5   10.000       9.934       9.825       9.613       9.210       8.492       7.312       5.528       3.072      6.4441E-03
   6   10.000       9.934       9.825       9.613       9.210       8.492       7.312       5.528       3.072      6.4441E-03
   7   10.000       9.934       9.825       9.613       9.210       8.492       7.312       5.528       3.072      6.4441E-03
   8   10.000       9.934       9.825       9.613       9.210       8.492       7.312       5.528       3.072      6.4441E-03
   9   10.000       9.934       9.825       9.613       9.210       8.492       7.312       5.528       3.072      6.4441E-03
  10   10.000       9.934       9.825       9.613       9.210       8.492       7.312       5.528       3.072      6.4441E-03
1
              HEAD IN LAYER   3 AT END OF TIME STEP  74 IN STRESS PERIOD    2
  ---------------------------------------------------------------------------

            1           2           3           4           5           6           7           8           9          10
 ........................................................................................................................
   1   10.000       9.932       9.820       9.605       9.197       8.473       7.288       5.501       3.048      7.1843E-03
   2   10.000       9.932       9.820       9.605       9.197       8.473       7.288       5.501       3.048      7.1843E-03
   3   10.000       9.932       9.820       9.605       9.197       8.473       7.288       5.501       3.048      7.1843E-03
   4   10.000       9.932       9.820       9.605       9.197       8.473       7.288       5.501       3.048      7.1843E-03
   5   10.000       9.932       9.820       9.605       9.197       8.473       7.288       5.501       3.048      7.1843E-03
   6   10.000       9.932       9.820       9.605       9.197       8.473       7.288       5.501       3.048      7.1843E-03
   7   10.000       9.932       9.820       9.605       9.197       8.473       7.288       5.501       3.048      7.1843E-03
   8   10.000       9.932       9.820       9.605       9.197       8.473       7.288       5.501       3.048      7.1843E-03
   9   10.000       9.932       9.820       9.605       9.197       8.473       7.288       5.501       3.048      7.1843E-03
  10   10.000       9.932       9.820       9.605       9.197       8.473       7.288       5.501       3.048      7.1843E-03
1
              HEAD IN LAYER   4 AT END OF TIME STEP  74 IN STRESS PERIOD    2
  ---------------------------------------------------------------------------

            1           2           3           4           5           6           7           8           9          10
 ........................................................................................................................
   1   10.000       9.931       9.818       9.599       9.188       8.461       7.271       5.483       3.032      7.2474E-03
   2   10.000       9.931       9.818       9.599       9.188       8.461       7.271       5.483       3.032      7.2474E-03
   3   10.000       9.931       9.818       9.599       9.188       8.461       7.271       5.483       3.032      7.2474E-03
   4   10.000       9.931       9.818       9.599       9.188       8.461       7.271       5.483       3.032      7.2474E-03
   5   10.000       9.931       9.818       9.599       9.188       8.461       7.271       5.483       3.032      7.2474E-03
   6   10.000       9.931       9.818       9.599       9.188       8.461       7.271       5.483       3.032      7.2474E-03
   7   10.000       9.931       9.818       9.599       9.188       8.461       7.271       5.483       3.032      7.2474E-03
   8   10.000       9.931       9.818       9.599       9.188       8.461       7.271       5.483       3.032      7.2474E-03
   9   10.000       9.931       9.818       9.599       9.188       8.461       7.271       5.483       3.032      7.2474E-03
  10   10.000       9.931       9.818       9.599       9.188       8.461       7.271       5.483       3.032      7.2474E-03
1
              HEAD IN LAYER   5 AT END OF TIME STEP  74 IN STRESS PERIOD    2
  ---------------------------------------------------------------------------

            1           2           3           4           5           6           7           8           9          10
 ........................................................................................................................
   1   10.000       9.930       9.816       9.597       9.184       8.455       7.263       5.474       3.024      7.2411E-03
   2   10.000       9.930       9.816       9.597       9.184       8.455       7.263       5.474       3.024      7.2411E-03
   3   10.000       9.930       9.816       9.597       9.184       8.455       7.263       5.474       3.024      7.2411E-03
   4   10.000       9.930       9.816       9.597       9.184       8.455       7.263       5.474       3.024      7.2411E-03
   5   10.000       9.930       9.816       9.597       9.184       8.455       7.263       5.474       3.024      7.2411E-03
   6   10.000       9.930       9.816       9.597       9.184       8.455       7.263       5.474       3.024      7.2411E-03
   7   10.000       9.930       9.816       9.597       9.184       8.455       7.263       5.474       3.024      7.2411E-03
   8   10.000       9.930       9.816       9.597       9.184       8.455       7.263       5.474       3.024      7.2411E-03
   9   10.000       9.930       9.816       9.597       9.184       8.455       7.263       5.474       3.024      7.2411E-03
  10   10.000       9.930       9.816       9.597       9.184       8.455       7.263       5.474       3.024      7.2411E-03

 HEAD WILL BE SAVED ON UNIT   51 AT END OF TIME STEP   74, STRESS PERIOD    2

 DRAWDOWN WILL BE SAVED ON UNIT   52 AT END OF TIME STEP   74, STRESS PERIOD    2
1
  VOLUMETRIC BUDGET FOR ENTIRE MODEL AT END OF TIME STEP   74, STRESS PERIOD   2
  ------------------------------------------------------------------------------

     CUMULATIVE VOLUMES      L**3       RATES FOR THIS TIME STEP      L**3/T
     ------------------                 ------------------------

           IN:                                      IN:
           ---                                      ---
             STORAGE =      281742.8750               STORAGE =        1506.6156
       CONSTANT HEAD =           0.0000         CONSTANT HEAD =           0.0000
               WELLS =           0.0000                 WELLS =           0.0000
     HEAD DEP BOUNDS =         734.2161       HEAD DEP BOUNDS =          40.1099

            TOTAL IN =      282477.0938              TOTAL IN =        1546.7255

          OUT:                                     OUT:
          ----                                     ----
             STORAGE =           0.0000               STORAGE =           0.0000
       CONSTANT HEAD =           0.0000         CONSTANT HEAD =           0.0000
               WELLS =           0.0000                 WELLS =           0.0000
     HEAD DEP BOUNDS =      282478.4062       HEAD DEP BOUNDS =        1546.7377

           TOTAL OUT =      282478.4062             TOTAL OUT =        1546.7377

            IN - OUT =          -1.3125              IN - OUT =      -1.2207E-02

 PERCENT DISCREPANCY =          -0.00     PERCENT DISCREPANCY =          -0.00






         TIME SUMMARY AT END OF TIME STEP   74 IN STRESS PERIOD    2
                    SECONDS     MINUTES      HOURS       DAYS        YEARS
                    -----------------------------------------------------------
   TIME STEP LENGTH  86400.      1440.0      24.000      1.0000     2.73785E-03
 STRESS PERIOD TIME 6.39360E+06 1.06560E+05  1776.0      74.000     0.20260    
         TOTAL TIME 6.48000E+06 1.08000E+05  1800.0      75.000     0.20534    
1
 
 SOLVING FOR HEAD 

 OUTPUT CONTROL FOR STRESS PERIOD    2   TIME STEP   75
    SAVE HEAD FOR ALL LAYERS
    SAVE DRAWDOWN FOR ALL LAYERS
    SAVE BUDGET
    PRINT HEAD FOR ALL LAYERS
    PRINT BUDGET
 UBDSV1 SAVING "         STORAGE" ON UNIT  53 AT TIME STEP 75, STRESS PERIOD   2
 UBDSV2 SAVING "   CONSTANT HEAD" ON UNIT  53 AT TIME STEP 75, STRESS PERIOD   2
 UBDSV1 SAVING "FLOW RIGHT FACE " ON UNIT  53 AT TIME STEP 75, STRESS PERIOD   2
 UBDSV1 SAVING "FLOW FRONT FACE " ON UNIT  53 AT TIME STEP 75, STRESS PERIOD   2
 UBDSV1 SAVING "FLOW LOWER FACE " ON UNIT  53 AT TIME STEP 75, STRESS PERIOD   2
1
              HEAD IN LAYER   1 AT END OF TIME STEP  75 IN STRESS PERIOD    2
  ---------------------------------------------------------------------------

            1           2           3           4           5           6           7           8           9          10
 ........................................................................................................................
   1   10.000       9.934       9.824       9.612       9.209       8.491       7.311       5.528       3.074      2.7978E-03
   2   10.000       9.934       9.824       9.612       9.209       8.491       7.311       5.528       3.074      2.7978E-03
   3   10.000       9.934       9.824       9.612       9.209       8.491       7.311       5.528       3.074      2.7978E-03
   4   10.000       9.934       9.824       9.612       9.209       8.491       7.311       5.528       3.074      2.7978E-03
   5   10.000       9.934       9.824       9.612       9.209       8.491       7.311       5.528       3.074      2.7978E-03
   6   10.000       9.934       9.824       9.612       9.209       8.491       7.311       5.528       3.074      2.7978E-03
   7   10.000       9.934       9.824       9.612       9.209       8.491       7.311       5.528       3.074      2.7978E-03
   8   10.000       9.934       9.824       9.612       9.209       8.491       7.311       5.528       3.074      2.7978E-03
   9   10.000       9.934       9.824       9.612       9.209       8.491       7.311       5.528       3.074      2.7978E-03
  10   10.000       9.934       9.824       9.612       9.209       8.491       7.311       5.528       3.074      2.7978E-03
1
              HEAD IN LAYER   2 AT END OF TIME STEP  75 IN STRESS PERIOD    2
  ---------------------------------------------------------------------------

            1           2           3           4           5           6           7           8           9          10
 ........................................................................................................................
   1   10.000       9.931       9.819       9.602       9.192       8.468       7.282       5.499       3.051      6.4015E-03
   2   10.000       9.931       9.819       9.602       9.192       8.468       7.282       5.499       3.051      6.4015E-03
   3   10.000       9.931       9.819       9.602       9.192       8.468       7.282       5.499       3.051      6.4015E-03
   4   10.000       9.931       9.819       9.602       9.192       8.468       7.282       5.499       3.051      6.4015E-03
   5   10.000       9.931       9.819       9.602       9.192       8.468       7.282       5.499       3.051      6.4015E-03
   6   10.000       9.931       9.819       9.602       9.192       8.468       7.282       5.499       3.051      6.4015E-03
   7   10.000       9.931       9.819       9.602       9.192       8.468       7.282       5.499       3.051      6.4015E-03
   8   10.000       9.931       9.819       9.602       9.192       8.468       7.282       5.499       3.051      6.4015E-03
   9   10.000       9.931       9.819       9.602       9.192       8.468       7.282       5.499       3.051      6.4015E-03
  10   10.000       9.931       9.819       9.602       9.192       8.468       7.282       5.499       3.051      6.4015E-03
1
              HEAD IN LAYER   3 AT END OF TIME STEP  75 IN STRESS PERIOD    2
  ---------------------------------------------------------------------------

            1           2           3           4           5           6           7           8           9          10
 ........................................................................................................................
   1   10.000       9.930       9.814       9.594       9.179       8.449       7.258       5.472       3.028      7.1377E-03
   2   10.000       9.930       9.814       9.594       9.179       8.449       7.258       5.472       3.028      7.1377E-03
   3   10.000       9.930       9.814       9.594       9.179       8.449       7.258       5.472       3.028      7.1377E-03
   4   10.000       9.930       9.814       9.594       9.179       8.449       7.258       5.472       3.028      7.1377E-03
   5   10.000       9.930       9.814       9.594       9.179       8.449       7.258       5.472       3.028      7.1377E-03
   6   10.000       9.930       9.814       9.594       9.179       8.449       7.258       5.472       3.028      7.1377E-03
   7   10.000       9.930       9.814       9.594       9.179       8.449       7.258       5.472       3.028      7.1377E-03
   8   10.000       9.930       9.814       9.594       9.179       8.449       7.258       5.472       3.028      7.1377E-03
   9   10.000       9.930       9.814       9.594       9.179       8.449       7.258       5.472       3.028      7.1377E-03
  10   10.000       9.930       9.814       9.594       9.179       8.449       7.258       5.472       3.028      7.1377E-03
1
              HEAD IN LAYER   4 AT END OF TIME STEP  75 IN STRESS PERIOD    2
  ---------------------------------------------------------------------------

            1           2           3           4           5           6           7           8           9          10
 ........................................................................................................................
   1   10.000       9.928       9.811       9.588       9.171       8.436       7.242       5.454       3.012      7.2008E-03
   2   10.000       9.928       9.811       9.588       9.171       8.436       7.242       5.454       3.012      7.2008E-03
   3   10.000       9.928       9.811       9.588       9.171       8.436       7.242       5.454       3.012      7.2008E-03
   4   10.000       9.928       9.811       9.588       9.171       8.436       7.242       5.454       3.012      7.2008E-03
   5   10.000       9.928       9.811       9.588       9.171       8.436       7.242       5.454       3.012      7.2008E-03
   6   10.000       9.928       9.811       9.588       9.171       8.436       7.242       5.454       3.012      7.2008E-03
   7   10.000       9.928       9.811       9.588       9.171       8.436       7.242       5.454       3.012      7.2008E-03
   8   10.000       9.928       9.811       9.588       9.171       8.436       7.242       5.454       3.012      7.2008E-03
   9   10.000       9.928       9.811       9.588       9.171       8.436       7.242       5.454       3.012      7.2008E-03
  10   10.000       9.928       9.811       9.588       9.171       8.436       7.242       5.454       3.012      7.2008E-03
1
              HEAD IN LAYER   5 AT END OF TIME STEP  75 IN STRESS PERIOD    2
  ---------------------------------------------------------------------------

            1           2           3           4           5           6           7           8           9          10
 ........................................................................................................................
   1   10.000       9.928       9.810       9.586       9.166       8.430       7.233       5.445       3.005      7.1948E-03
   2   10.000       9.928       9.810       9.586       9.166       8.430       7.233       5.445       3.005      7.1948E-03
   3   10.000       9.928       9.810       9.586       9.166       8.430       7.233       5.445       3.005      7.1948E-03
   4   10.000       9.928       9.810       9.586       9.166       8.430       7.233       5.445       3.005      7.1948E-03
   5   10.000       9.928       9.810       9.586       9.166       8.430       7.233       5.445       3.005      7.1948E-03
   6   10.000       9.928       9.810       9.586       9.166       8.430       7.233       5.445       3.005      7.1948E-03
   7   10.000       9.928       9.810       9.586       9.166       8.430       7.233       5.445       3.005      7.1948E-03
   8   10.000       9.928       9.810       9.586       9.166       8.430       7.233       5.445       3.005      7.1948E-03
   9   10.000       9.928       9.810       9.586       9.166       8.430       7.233       5.445       3.005      7.1948E-03
  10   10.000       9.928       9.810       9.586       9.166       8.430       7.233       5.445       3.005      7.1948E-03

 HEAD WILL BE SAVED ON UNIT   51 AT END OF TIME STEP   75, STRESS PERIOD    2

 DRAWDOWN WILL BE SAVED ON UNIT   52 AT END OF TIME STEP   75, STRESS PERIOD    2
1
  VOLUMETRIC BUDGET FOR ENTIRE MODEL AT END OF TIME STEP   75, STRESS PERIOD   2
  ------------------------------------------------------------------------------

     CUMULATIVE VOLUMES      L**3       RATES FOR THIS TIME STEP      L**3/T
     ------------------                 ------------------------

           IN:                                      IN:
           ---                                      ---
             STORAGE =      283237.7812               STORAGE =        1494.9102
       CONSTANT HEAD =           0.0000         CONSTANT HEAD =           0.0000
               WELLS =           0.0000                 WELLS =           0.0000
     HEAD DEP BOUNDS =         775.8467       HEAD DEP BOUNDS =          41.6307

            TOTAL IN =      284013.6250              TOTAL IN =        1536.5408

          OUT:                                     OUT:
          ----                                     ----
             STORAGE =           0.0000               STORAGE =           0.0000
       CONSTANT HEAD =           0.0000         CONSTANT HEAD =           0.0000
               WELLS =           0.0000                 WELLS =           0.0000
     HEAD DEP BOUNDS =      284015.0312       HEAD DEP BOUNDS =        1536.6316

           TOTAL OUT =      284015.0312             TOTAL OUT =        1536.6316

            IN - OUT =          -1.4062              IN - OUT =      -9.0820E-02

 PERCENT DISCREPANCY =          -0.00     PERCENT DISCREPANCY =          -0.01






         TIME SUMMARY AT END OF TIME STEP   75 IN STRESS PERIOD    2
                    SECONDS     MINUTES      HOURS       DAYS        YEARS
                    -----------------------------------------------------------
   TIME STEP LENGTH  86400.      1440.0      24.000      1.0000     2.73785E-03
 STRESS PERIOD TIME 6.48000E+06 1.08000E+05  1800.0      75.000     0.20534    
         TOTAL TIME 6.56640E+06 1.09440E+05  1824.0      76.000     0.20808    
1
 
 SOLVING FOR HEAD 

 OUTPUT CONTROL FOR STRESS PERIOD    2   TIME STEP   76
    SAVE HEAD FOR ALL LAYERS
    SAVE DRAWDOWN FOR ALL LAYERS
    SAVE BUDGET
    PRINT HEAD FOR ALL LAYERS
    PRINT BUDGET
 UBDSV1 SAVING "         STORAGE" ON UNIT  53 AT TIME STEP 76, STRESS PERIOD   2
 UBDSV2 SAVING "   CONSTANT HEAD" ON UNIT  53 AT TIME STEP 76, STRESS PERIOD   2
 UBDSV1 SAVING "FLOW RIGHT FACE " ON UNIT  53 AT TIME STEP 76, STRESS PERIOD   2
 UBDSV1 SAVING "FLOW FRONT FACE " ON UNIT  53 AT TIME STEP 76, STRESS PERIOD   2
 UBDSV1 SAVING "FLOW LOWER FACE " ON UNIT  53 AT TIME STEP 76, STRESS PERIOD   2
1
              HEAD IN LAYER   1 AT END OF TIME STEP  76 IN STRESS PERIOD    2
  ---------------------------------------------------------------------------

            1           2           3           4           5           6           7           8           9          10
 ........................................................................................................................
   1   10.000       9.931       9.818       9.601       9.191       8.467       7.281       5.498       3.054      2.7779E-03
   2   10.000       9.931       9.818       9.601       9.191       8.467       7.281       5.498       3.054      2.7779E-03
   3   10.000       9.931       9.818       9.601       9.191       8.467       7.281       5.498       3.054      2.7779E-03
   4   10.000       9.931       9.818       9.601       9.191       8.467       7.281       5.498       3.054      2.7779E-03
   5   10.000       9.931       9.818       9.601       9.191       8.467       7.281       5.498       3.054      2.7779E-03
   6   10.000       9.931       9.818       9.601       9.191       8.467       7.281       5.498       3.054      2.7779E-03
   7   10.000       9.931       9.818       9.601       9.191       8.467       7.281       5.498       3.054      2.7779E-03
   8   10.000       9.931       9.818       9.601       9.191       8.467       7.281       5.498       3.054      2.7779E-03
   9   10.000       9.931       9.818       9.601       9.191       8.467       7.281       5.498       3.054      2.7779E-03
  10   10.000       9.931       9.818       9.601       9.191       8.467       7.281       5.498       3.054      2.7779E-03
1
              HEAD IN LAYER   2 AT END OF TIME STEP  76 IN STRESS PERIOD    2
  ---------------------------------------------------------------------------

            1           2           3           4           5           6           7           8           9          10
 ........................................................................................................................
   1   10.000       9.929       9.813       9.591       9.175       8.443       7.252       5.469       3.032      6.3598E-03
   2   10.000       9.929       9.813       9.591       9.175       8.443       7.252       5.469       3.032      6.3598E-03
   3   10.000       9.929       9.813       9.591       9.175       8.443       7.252       5.469       3.032      6.3598E-03
   4   10.000       9.929       9.813       9.591       9.175       8.443       7.252       5.469       3.032      6.3598E-03
   5   10.000       9.929       9.813       9.591       9.175       8.443       7.252       5.469       3.032      6.3598E-03
   6   10.000       9.929       9.813       9.591       9.175       8.443       7.252       5.469       3.032      6.3598E-03
   7   10.000       9.929       9.813       9.591       9.175       8.443       7.252       5.469       3.032      6.3598E-03
   8   10.000       9.929       9.813       9.591       9.175       8.443       7.252       5.469       3.032      6.3598E-03
   9   10.000       9.929       9.813       9.591       9.175       8.443       7.252       5.469       3.032      6.3598E-03
  10   10.000       9.929       9.813       9.591       9.175       8.443       7.252       5.469       3.032      6.3598E-03
1
              HEAD IN LAYER   3 AT END OF TIME STEP  76 IN STRESS PERIOD    2
  ---------------------------------------------------------------------------

            1           2           3           4           5           6           7           8           9          10
 ........................................................................................................................
   1   10.000       9.927       9.808       9.583       9.162       8.424       7.228       5.443       3.009      7.0921E-03
   2   10.000       9.927       9.808       9.583       9.162       8.424       7.228       5.443       3.009      7.0921E-03
   3   10.000       9.927       9.808       9.583       9.162       8.424       7.228       5.443       3.009      7.0921E-03
   4   10.000       9.927       9.808       9.583       9.162       8.424       7.228       5.443       3.009      7.0921E-03
   5   10.000       9.927       9.808       9.583       9.162       8.424       7.228       5.443       3.009      7.0921E-03
   6   10.000       9.927       9.808       9.583       9.162       8.424       7.228       5.443       3.009      7.0921E-03
   7   10.000       9.927       9.808       9.583       9.162       8.424       7.228       5.443       3.009      7.0921E-03
   8   10.000       9.927       9.808       9.583       9.162       8.424       7.228       5.443       3.009      7.0921E-03
   9   10.000       9.927       9.808       9.583       9.162       8.424       7.228       5.443       3.009      7.0921E-03
  10   10.000       9.927       9.808       9.583       9.162       8.424       7.228       5.443       3.009      7.0921E-03
1
              HEAD IN LAYER   4 AT END OF TIME STEP  76 IN STRESS PERIOD    2
  ---------------------------------------------------------------------------

            1           2           3           4           5           6           7           8           9          10
 ........................................................................................................................
   1   10.000       9.926       9.805       9.577       9.153       8.412       7.212       5.425       2.993      7.1552E-03
   2   10.000       9.926       9.805       9.577       9.153       8.412       7.212       5.425       2.993      7.1552E-03
   3   10.000       9.926       9.805       9.577       9.153       8.412       7.212       5.425       2.993      7.1552E-03
   4   10.000       9.926       9.805       9.577       9.153       8.412       7.212       5.425       2.993      7.1552E-03
   5   10.000       9.926       9.805       9.577       9.153       8.412       7.212       5.425       2.993      7.1552E-03
   6   10.000       9.926       9.805       9.577       9.153       8.412       7.212       5.425       2.993      7.1552E-03
   7   10.000       9.926       9.805       9.577       9.153       8.412       7.212       5.425       2.993      7.1552E-03
   8   10.000       9.926       9.805       9.577       9.153       8.412       7.212       5.425       2.993      7.1552E-03
   9   10.000       9.926       9.805       9.577       9.153       8.412       7.212       5.425       2.993      7.1552E-03
  10   10.000       9.926       9.805       9.577       9.153       8.412       7.212       5.425       2.993      7.1552E-03
1
              HEAD IN LAYER   5 AT END OF TIME STEP  76 IN STRESS PERIOD    2
  ---------------------------------------------------------------------------

            1           2           3           4           5           6           7           8           9          10
 ........................................................................................................................
   1   10.000       9.925       9.804       9.575       9.149       8.406       7.204       5.416       2.986      7.1494E-03
   2   10.000       9.925       9.804       9.575       9.149       8.406       7.204       5.416       2.986      7.1494E-03
   3   10.000       9.925       9.804       9.575       9.149       8.406       7.204       5.416       2.986      7.1494E-03
   4   10.000       9.925       9.804       9.575       9.149       8.406       7.204       5.416       2.986      7.1494E-03
   5   10.000       9.925       9.804       9.575       9.149       8.406       7.204       5.416       2.986      7.1494E-03
   6   10.000       9.925       9.804       9.575       9.149       8.406       7.204       5.416       2.986      7.1494E-03
   7   10.000       9.925       9.804       9.575       9.149       8.406       7.204       5.416       2.986      7.1494E-03
   8   10.000       9.925       9.804       9.575       9.149       8.406       7.204       5.416       2.986      7.1494E-03
   9   10.000       9.925       9.804       9.575       9.149       8.406       7.204       5.416       2.986      7.1494E-03
  10   10.000       9.925       9.804       9.575       9.149       8.406       7.204       5.416       2.986      7.1494E-03

 HEAD WILL BE SAVED ON UNIT   51 AT END OF TIME STEP   76, STRESS PERIOD    2

 DRAWDOWN WILL BE SAVED ON UNIT   52 AT END OF TIME STEP   76, STRESS PERIOD    2
1
  VOLUMETRIC BUDGET FOR ENTIRE MODEL AT END OF TIME STEP   76, STRESS PERIOD   2
  ------------------------------------------------------------------------------

     CUMULATIVE VOLUMES      L**3       RATES FOR THIS TIME STEP      L**3/T
     ------------------                 ------------------------

           IN:                                      IN:
           ---                                      ---
             STORAGE =      284721.1875               STORAGE =        1483.3987
       CONSTANT HEAD =           0.0000         CONSTANT HEAD =           0.0000
               WELLS =           0.0000                 WELLS =           0.0000
     HEAD DEP BOUNDS =         819.0927       HEAD DEP BOUNDS =          43.2460

            TOTAL IN =      285540.2812              TOTAL IN =        1526.6447

          OUT:                                     OUT:
          ----                                     ----
             STORAGE =           0.0000               STORAGE =           0.0000
       CONSTANT HEAD =           0.0000         CONSTANT HEAD =           0.0000
               WELLS =           0.0000                 WELLS =           0.0000
     HEAD DEP BOUNDS =      285541.7500       HEAD DEP BOUNDS =        1526.7145

           TOTAL OUT =      285541.7500             TOTAL OUT =        1526.7145

            IN - OUT =          -1.4688              IN - OUT =      -6.9824E-02

 PERCENT DISCREPANCY =          -0.00     PERCENT DISCREPANCY =          -0.00






         TIME SUMMARY AT END OF TIME STEP   76 IN STRESS PERIOD    2
                    SECONDS     MINUTES      HOURS       DAYS        YEARS
                    -----------------------------------------------------------
   TIME STEP LENGTH  86400.      1440.0      24.000      1.0000     2.73785E-03
 STRESS PERIOD TIME 6.56640E+06 1.09440E+05  1824.0      76.000     0.20808    
         TOTAL TIME 6.65280E+06 1.10880E+05  1848.0      77.000     0.21081    
1
 
 SOLVING FOR HEAD 

 OUTPUT CONTROL FOR STRESS PERIOD    2   TIME STEP   77
    SAVE HEAD FOR ALL LAYERS
    SAVE DRAWDOWN FOR ALL LAYERS
    SAVE BUDGET
    PRINT HEAD FOR ALL LAYERS
    PRINT BUDGET
 UBDSV1 SAVING "         STORAGE" ON UNIT  53 AT TIME STEP 77, STRESS PERIOD   2
 UBDSV2 SAVING "   CONSTANT HEAD" ON UNIT  53 AT TIME STEP 77, STRESS PERIOD   2
 UBDSV1 SAVING "FLOW RIGHT FACE " ON UNIT  53 AT TIME STEP 77, STRESS PERIOD   2
 UBDSV1 SAVING "FLOW FRONT FACE " ON UNIT  53 AT TIME STEP 77, STRESS PERIOD   2
 UBDSV1 SAVING "FLOW LOWER FACE " ON UNIT  53 AT TIME STEP 77, STRESS PERIOD   2
1
              HEAD IN LAYER   1 AT END OF TIME STEP  77 IN STRESS PERIOD    2
  ---------------------------------------------------------------------------

            1           2           3           4           5           6           7           8           9          10
 ........................................................................................................................
   1   10.000       9.929       9.812       9.590       9.174       8.442       7.251       5.469       3.034      2.7584E-03
   2   10.000       9.929       9.812       9.590       9.174       8.442       7.251       5.469       3.034      2.7584E-03
   3   10.000       9.929       9.812       9.590       9.174       8.442       7.251       5.469       3.034      2.7584E-03
   4   10.000       9.929       9.812       9.590       9.174       8.442       7.251       5.469       3.034      2.7584E-03
   5   10.000       9.929       9.812       9.590       9.174       8.442       7.251       5.469       3.034      2.7584E-03
   6   10.000       9.929       9.812       9.590       9.174       8.442       7.251       5.469       3.034      2.7584E-03
   7   10.000       9.929       9.812       9.590       9.174       8.442       7.251       5.469       3.034      2.7584E-03
   8   10.000       9.929       9.812       9.590       9.174       8.442       7.251       5.469       3.034      2.7584E-03
   9   10.000       9.929       9.812       9.590       9.174       8.442       7.251       5.469       3.034      2.7584E-03
  10   10.000       9.929       9.812       9.590       9.174       8.442       7.251       5.469       3.034      2.7584E-03
1
              HEAD IN LAYER   2 AT END OF TIME STEP  77 IN STRESS PERIOD    2
  ---------------------------------------------------------------------------

            1           2           3           4           5           6           7           8           9          10
 ........................................................................................................................
   1   10.000       9.926       9.806       9.579       9.157       8.419       7.223       5.441       3.012      6.3189E-03
   2   10.000       9.926       9.806       9.579       9.157       8.419       7.223       5.441       3.012      6.3189E-03
   3   10.000       9.926       9.806       9.579       9.157       8.419       7.223       5.441       3.012      6.3189E-03
   4   10.000       9.926       9.806       9.579       9.157       8.419       7.223       5.441       3.012      6.3189E-03
   5   10.000       9.926       9.806       9.579       9.157       8.419       7.223       5.441       3.012      6.3189E-03
   6   10.000       9.926       9.806       9.579       9.157       8.419       7.223       5.441       3.012      6.3189E-03
   7   10.000       9.926       9.806       9.579       9.157       8.419       7.223       5.441       3.012      6.3189E-03
   8   10.000       9.926       9.806       9.579       9.157       8.419       7.223       5.441       3.012      6.3189E-03
   9   10.000       9.926       9.806       9.579       9.157       8.419       7.223       5.441       3.012      6.3189E-03
  10   10.000       9.926       9.806       9.579       9.157       8.419       7.223       5.441       3.012      6.3189E-03
1
              HEAD IN LAYER   3 AT END OF TIME STEP  77 IN STRESS PERIOD    2
  ---------------------------------------------------------------------------

            1           2           3           4           5           6           7           8           9          10
 ........................................................................................................................
   1   10.000       9.924       9.802       9.571       9.144       8.400       7.199       5.414       2.990      7.0473E-03
   2   10.000       9.924       9.802       9.571       9.144       8.400       7.199       5.414       2.990      7.0473E-03
   3   10.000       9.924       9.802       9.571       9.144       8.400       7.199       5.414       2.990      7.0473E-03
   4   10.000       9.924       9.802       9.571       9.144       8.400       7.199       5.414       2.990      7.0473E-03
   5   10.000       9.924       9.802       9.571       9.144       8.400       7.199       5.414       2.990      7.0473E-03
   6   10.000       9.924       9.802       9.571       9.144       8.400       7.199       5.414       2.990      7.0473E-03
   7   10.000       9.924       9.802       9.571       9.144       8.400       7.199       5.414       2.990      7.0473E-03
   8   10.000       9.924       9.802       9.571       9.144       8.400       7.199       5.414       2.990      7.0473E-03
   9   10.000       9.924       9.802       9.571       9.144       8.400       7.199       5.414       2.990      7.0473E-03
  10   10.000       9.924       9.802       9.571       9.144       8.400       7.199       5.414       2.990      7.0473E-03
1
              HEAD IN LAYER   4 AT END OF TIME STEP  77 IN STRESS PERIOD    2
  ---------------------------------------------------------------------------

            1           2           3           4           5           6           7           8           9          10
 ........................................................................................................................
   1   10.000       9.923       9.799       9.566       9.135       8.388       7.183       5.397       2.974      7.1104E-03
   2   10.000       9.923       9.799       9.566       9.135       8.388       7.183       5.397       2.974      7.1104E-03
   3   10.000       9.923       9.799       9.566       9.135       8.388       7.183       5.397       2.974      7.1104E-03
   4   10.000       9.923       9.799       9.566       9.135       8.388       7.183       5.397       2.974      7.1104E-03
   5   10.000       9.923       9.799       9.566       9.135       8.388       7.183       5.397       2.974      7.1104E-03
   6   10.000       9.923       9.799       9.566       9.135       8.388       7.183       5.397       2.974      7.1104E-03
   7   10.000       9.923       9.799       9.566       9.135       8.388       7.183       5.397       2.974      7.1104E-03
   8   10.000       9.923       9.799       9.566       9.135       8.388       7.183       5.397       2.974      7.1104E-03
   9   10.000       9.923       9.799       9.566       9.135       8.388       7.183       5.397       2.974      7.1104E-03
  10   10.000       9.923       9.799       9.566       9.135       8.388       7.183       5.397       2.974      7.1104E-03
1
              HEAD IN LAYER   5 AT END OF TIME STEP  77 IN STRESS PERIOD    2
  ---------------------------------------------------------------------------

            1           2           3           4           5           6           7           8           9          10
 ........................................................................................................................
   1   10.000       9.922       9.797       9.563       9.131       8.381       7.175       5.388       2.967      7.1048E-03
   2   10.000       9.922       9.797       9.563       9.131       8.381       7.175       5.388       2.967      7.1048E-03
   3   10.000       9.922       9.797       9.563       9.131       8.381       7.175       5.388       2.967      7.1048E-03
   4   10.000       9.922       9.797       9.563       9.131       8.381       7.175       5.388       2.967      7.1048E-03
   5   10.000       9.922       9.797       9.563       9.131       8.381       7.175       5.388       2.967      7.1048E-03
   6   10.000       9.922       9.797       9.563       9.131       8.381       7.175       5.388       2.967      7.1048E-03
   7   10.000       9.922       9.797       9.563       9.131       8.381       7.175       5.388       2.967      7.1048E-03
   8   10.000       9.922       9.797       9.563       9.131       8.381       7.175       5.388       2.967      7.1048E-03
   9   10.000       9.922       9.797       9.563       9.131       8.381       7.175       5.388       2.967      7.1048E-03
  10   10.000       9.922       9.797       9.563       9.131       8.381       7.175       5.388       2.967      7.1048E-03

 HEAD WILL BE SAVED ON UNIT   51 AT END OF TIME STEP   77, STRESS PERIOD    2

 DRAWDOWN WILL BE SAVED ON UNIT   52 AT END OF TIME STEP   77, STRESS PERIOD    2
1
  VOLUMETRIC BUDGET FOR ENTIRE MODEL AT END OF TIME STEP   77, STRESS PERIOD   2
  ------------------------------------------------------------------------------

     CUMULATIVE VOLUMES      L**3       RATES FOR THIS TIME STEP      L**3/T
     ------------------                 ------------------------

           IN:                                      IN:
           ---                                      ---
             STORAGE =      286193.2500               STORAGE =        1472.0636
       CONSTANT HEAD =           0.0000         CONSTANT HEAD =           0.0000
               WELLS =           0.0000                 WELLS =           0.0000
     HEAD DEP BOUNDS =         863.9799       HEAD DEP BOUNDS =          44.8872

            TOTAL IN =      287057.2188              TOTAL IN =        1516.9508

          OUT:                                     OUT:
          ----                                     ----
             STORAGE =           0.0000               STORAGE =           0.0000
       CONSTANT HEAD =           0.0000         CONSTANT HEAD =           0.0000
               WELLS =           0.0000                 WELLS =           0.0000
     HEAD DEP BOUNDS =      287058.7500       HEAD DEP BOUNDS =        1516.9893

           TOTAL OUT =      287058.7500             TOTAL OUT =        1516.9893

            IN - OUT =          -1.5312              IN - OUT =      -3.8452E-02

 PERCENT DISCREPANCY =          -0.00     PERCENT DISCREPANCY =          -0.00






         TIME SUMMARY AT END OF TIME STEP   77 IN STRESS PERIOD    2
                    SECONDS     MINUTES      HOURS       DAYS        YEARS
                    -----------------------------------------------------------
   TIME STEP LENGTH  86400.      1440.0      24.000      1.0000     2.73785E-03
 STRESS PERIOD TIME 6.65280E+06 1.10880E+05  1848.0      77.000     0.21081    
         TOTAL TIME 6.73920E+06 1.12320E+05  1872.0      78.000     0.21355    
1
 
 SOLVING FOR HEAD 

 OUTPUT CONTROL FOR STRESS PERIOD    2   TIME STEP   78
    SAVE HEAD FOR ALL LAYERS
    SAVE DRAWDOWN FOR ALL LAYERS
    SAVE BUDGET
    PRINT HEAD FOR ALL LAYERS
    PRINT BUDGET
 UBDSV1 SAVING "         STORAGE" ON UNIT  53 AT TIME STEP 78, STRESS PERIOD   2
 UBDSV2 SAVING "   CONSTANT HEAD" ON UNIT  53 AT TIME STEP 78, STRESS PERIOD   2
 UBDSV1 SAVING "FLOW RIGHT FACE " ON UNIT  53 AT TIME STEP 78, STRESS PERIOD   2
 UBDSV1 SAVING "FLOW FRONT FACE " ON UNIT  53 AT TIME STEP 78, STRESS PERIOD   2
 UBDSV1 SAVING "FLOW LOWER FACE " ON UNIT  53 AT TIME STEP 78, STRESS PERIOD   2
1
              HEAD IN LAYER   1 AT END OF TIME STEP  78 IN STRESS PERIOD    2
  ---------------------------------------------------------------------------

            1           2           3           4           5           6           7           8           9          10
 ........................................................................................................................
   1   10.000       9.926       9.806       9.579       9.156       8.418       7.222       5.440       3.015      2.7392E-03
   2   10.000       9.926       9.806       9.579       9.156       8.418       7.222       5.440       3.015      2.7392E-03
   3   10.000       9.926       9.806       9.579       9.156       8.418       7.222       5.440       3.015      2.7392E-03
   4   10.000       9.926       9.806       9.579       9.156       8.418       7.222       5.440       3.015      2.7392E-03
   5   10.000       9.926       9.806       9.579       9.156       8.418       7.222       5.440       3.015      2.7392E-03
   6   10.000       9.926       9.806       9.579       9.156       8.418       7.222       5.440       3.015      2.7392E-03
   7   10.000       9.926       9.806       9.579       9.156       8.418       7.222       5.440       3.015      2.7392E-03
   8   10.000       9.926       9.806       9.579       9.156       8.418       7.222       5.440       3.015      2.7392E-03
   9   10.000       9.926       9.806       9.579       9.156       8.418       7.222       5.440       3.015      2.7392E-03
  10   10.000       9.926       9.806       9.579       9.156       8.418       7.222       5.440       3.015      2.7392E-03
1
              HEAD IN LAYER   2 AT END OF TIME STEP  78 IN STRESS PERIOD    2
  ---------------------------------------------------------------------------

            1           2           3           4           5           6           7           8           9          10
 ........................................................................................................................
   1   10.000       9.923       9.800       9.568       9.139       8.394       7.194       5.412       2.993      6.2788E-03
   2   10.000       9.923       9.800       9.568       9.139       8.394       7.194       5.412       2.993      6.2788E-03
   3   10.000       9.923       9.800       9.568       9.139       8.394       7.194       5.412       2.993      6.2788E-03
   4   10.000       9.923       9.800       9.568       9.139       8.394       7.194       5.412       2.993      6.2788E-03
   5   10.000       9.923       9.800       9.568       9.139       8.394       7.194       5.412       2.993      6.2788E-03
   6   10.000       9.923       9.800       9.568       9.139       8.394       7.194       5.412       2.993      6.2788E-03
   7   10.000       9.923       9.800       9.568       9.139       8.394       7.194       5.412       2.993      6.2788E-03
   8   10.000       9.923       9.800       9.568       9.139       8.394       7.194       5.412       2.993      6.2788E-03
   9   10.000       9.923       9.800       9.568       9.139       8.394       7.194       5.412       2.993      6.2788E-03
  10   10.000       9.923       9.800       9.568       9.139       8.394       7.194       5.412       2.993      6.2788E-03
1
              HEAD IN LAYER   3 AT END OF TIME STEP  78 IN STRESS PERIOD    2
  ---------------------------------------------------------------------------

            1           2           3           4           5           6           7           8           9          10
 ........................................................................................................................
   1   10.000       9.921       9.796       9.560       9.127       8.376       7.170       5.386       2.971      7.0033E-03
   2   10.000       9.921       9.796       9.560       9.127       8.376       7.170       5.386       2.971      7.0033E-03
   3   10.000       9.921       9.796       9.560       9.127       8.376       7.170       5.386       2.971      7.0033E-03
   4   10.000       9.921       9.796       9.560       9.127       8.376       7.170       5.386       2.971      7.0033E-03
   5   10.000       9.921       9.796       9.560       9.127       8.376       7.170       5.386       2.971      7.0033E-03
   6   10.000       9.921       9.796       9.560       9.127       8.376       7.170       5.386       2.971      7.0033E-03
   7   10.000       9.921       9.796       9.560       9.127       8.376       7.170       5.386       2.971      7.0033E-03
   8   10.000       9.921       9.796       9.560       9.127       8.376       7.170       5.386       2.971      7.0033E-03
   9   10.000       9.921       9.796       9.560       9.127       8.376       7.170       5.386       2.971      7.0033E-03
  10   10.000       9.921       9.796       9.560       9.127       8.376       7.170       5.386       2.971      7.0033E-03
1
              HEAD IN LAYER   4 AT END OF TIME STEP  78 IN STRESS PERIOD    2
  ---------------------------------------------------------------------------

            1           2           3           4           5           6           7           8           9          10
 ........................................................................................................................
   1   10.000       9.920       9.793       9.555       9.118       8.363       7.155       5.369       2.956      7.0664E-03
   2   10.000       9.920       9.793       9.555       9.118       8.363       7.155       5.369       2.956      7.0664E-03
   3   10.000       9.920       9.793       9.555       9.118       8.363       7.155       5.369       2.956      7.0664E-03
   4   10.000       9.920       9.793       9.555       9.118       8.363       7.155       5.369       2.956      7.0664E-03
   5   10.000       9.920       9.793       9.555       9.118       8.363       7.155       5.369       2.956      7.0664E-03
   6   10.000       9.920       9.793       9.555       9.118       8.363       7.155       5.369       2.956      7.0664E-03
   7   10.000       9.920       9.793       9.555       9.118       8.363       7.155       5.369       2.956      7.0664E-03
   8   10.000       9.920       9.793       9.555       9.118       8.363       7.155       5.369       2.956      7.0664E-03
   9   10.000       9.920       9.793       9.555       9.118       8.363       7.155       5.369       2.956      7.0664E-03
  10   10.000       9.920       9.793       9.555       9.118       8.363       7.155       5.369       2.956      7.0664E-03
1
              HEAD IN LAYER   5 AT END OF TIME STEP  78 IN STRESS PERIOD    2
  ---------------------------------------------------------------------------

            1           2           3           4           5           6           7           8           9          10
 ........................................................................................................................
   1   10.000       9.919       9.791       9.552       9.114       8.357       7.147       5.361       2.949      7.0610E-03
   2   10.000       9.919       9.791       9.552       9.114       8.357       7.147       5.361       2.949      7.0610E-03
   3   10.000       9.919       9.791       9.552       9.114       8.357       7.147       5.361       2.949      7.0610E-03
   4   10.000       9.919       9.791       9.552       9.114       8.357       7.147       5.361       2.949      7.0610E-03
   5   10.000       9.919       9.791       9.552       9.114       8.357       7.147       5.361       2.949      7.0610E-03
   6   10.000       9.919       9.791       9.552       9.114       8.357       7.147       5.361       2.949      7.0610E-03
   7   10.000       9.919       9.791       9.552       9.114       8.357       7.147       5.361       2.949      7.0610E-03
   8   10.000       9.919       9.791       9.552       9.114       8.357       7.147       5.361       2.949      7.0610E-03
   9   10.000       9.919       9.791       9.552       9.114       8.357       7.147       5.361       2.949      7.0610E-03
  10   10.000       9.919       9.791       9.552       9.114       8.357       7.147       5.361       2.949      7.0610E-03

 HEAD WILL BE SAVED ON UNIT   51 AT END OF TIME STEP   78, STRESS PERIOD    2

 DRAWDOWN WILL BE SAVED ON UNIT   52 AT END OF TIME STEP   78, STRESS PERIOD    2
1
  VOLUMETRIC BUDGET FOR ENTIRE MODEL AT END OF TIME STEP   78, STRESS PERIOD   2
  ------------------------------------------------------------------------------

     CUMULATIVE VOLUMES      L**3       RATES FOR THIS TIME STEP      L**3/T
     ------------------                 ------------------------

           IN:                                      IN:
           ---                                      ---
             STORAGE =      287654.1250               STORAGE =        1460.8600
       CONSTANT HEAD =           0.0000         CONSTANT HEAD =           0.0000
               WELLS =           0.0000                 WELLS =           0.0000
     HEAD DEP BOUNDS =         910.4658       HEAD DEP BOUNDS =          46.4859

            TOTAL IN =      288564.5938              TOTAL IN =        1507.3459

          OUT:                                     OUT:
          ----                                     ----
             STORAGE =           0.0000               STORAGE =           0.0000
       CONSTANT HEAD =           0.0000         CONSTANT HEAD =           0.0000
               WELLS =           0.0000                 WELLS =           0.0000
     HEAD DEP BOUNDS =      288566.1875       HEAD DEP BOUNDS =        1507.4330

           TOTAL OUT =      288566.1875             TOTAL OUT =        1507.4330

            IN - OUT =          -1.5938              IN - OUT =      -8.7036E-02

 PERCENT DISCREPANCY =          -0.00     PERCENT DISCREPANCY =          -0.01






         TIME SUMMARY AT END OF TIME STEP   78 IN STRESS PERIOD    2
                    SECONDS     MINUTES      HOURS       DAYS        YEARS
                    -----------------------------------------------------------
   TIME STEP LENGTH  86400.      1440.0      24.000      1.0000     2.73785E-03
 STRESS PERIOD TIME 6.73920E+06 1.12320E+05  1872.0      78.000     0.21355    
         TOTAL TIME 6.82560E+06 1.13760E+05  1896.0      79.000     0.21629    
1
 
 SOLVING FOR HEAD 

 OUTPUT CONTROL FOR STRESS PERIOD    2   TIME STEP   79
    SAVE HEAD FOR ALL LAYERS
    SAVE DRAWDOWN FOR ALL LAYERS
    SAVE BUDGET
    PRINT HEAD FOR ALL LAYERS
    PRINT BUDGET
 UBDSV1 SAVING "         STORAGE" ON UNIT  53 AT TIME STEP 79, STRESS PERIOD   2
 UBDSV2 SAVING "   CONSTANT HEAD" ON UNIT  53 AT TIME STEP 79, STRESS PERIOD   2
 UBDSV1 SAVING "FLOW RIGHT FACE " ON UNIT  53 AT TIME STEP 79, STRESS PERIOD   2
 UBDSV1 SAVING "FLOW FRONT FACE " ON UNIT  53 AT TIME STEP 79, STRESS PERIOD   2
 UBDSV1 SAVING "FLOW LOWER FACE " ON UNIT  53 AT TIME STEP 79, STRESS PERIOD   2
1
              HEAD IN LAYER   1 AT END OF TIME STEP  79 IN STRESS PERIOD    2
  ---------------------------------------------------------------------------

            1           2           3           4           5           6           7           8           9          10
 ........................................................................................................................
   1   10.000       9.923       9.800       9.568       9.139       8.393       7.193       5.412       2.996      2.7206E-03
   2   10.000       9.923       9.800       9.568       9.139       8.393       7.193       5.412       2.996      2.7206E-03
   3   10.000       9.923       9.800       9.568       9.139       8.393       7.193       5.412       2.996      2.7206E-03
   4   10.000       9.923       9.800       9.568       9.139       8.393       7.193       5.412       2.996      2.7206E-03
   5   10.000       9.923       9.800       9.568       9.139       8.393       7.193       5.412       2.996      2.7206E-03
   6   10.000       9.923       9.800       9.568       9.139       8.393       7.193       5.412       2.996      2.7206E-03
   7   10.000       9.923       9.800       9.568       9.139       8.393       7.193       5.412       2.996      2.7206E-03
   8   10.000       9.923       9.800       9.568       9.139       8.393       7.193       5.412       2.996      2.7206E-03
   9   10.000       9.923       9.800       9.568       9.139       8.393       7.193       5.412       2.996      2.7206E-03
  10   10.000       9.923       9.800       9.568       9.139       8.393       7.193       5.412       2.996      2.7206E-03
1
              HEAD IN LAYER   2 AT END OF TIME STEP  79 IN STRESS PERIOD    2
  ---------------------------------------------------------------------------

            1           2           3           4           5           6           7           8           9          10
 ........................................................................................................................
   1   10.000       9.921       9.794       9.557       9.122       8.370       7.165       5.384       2.975      6.2394E-03
   2   10.000       9.921       9.794       9.557       9.122       8.370       7.165       5.384       2.975      6.2394E-03
   3   10.000       9.921       9.794       9.557       9.122       8.370       7.165       5.384       2.975      6.2394E-03
   4   10.000       9.921       9.794       9.557       9.122       8.370       7.165       5.384       2.975      6.2394E-03
   5   10.000       9.921       9.794       9.557       9.122       8.370       7.165       5.384       2.975      6.2394E-03
   6   10.000       9.921       9.794       9.557       9.122       8.370       7.165       5.384       2.975      6.2394E-03
   7   10.000       9.921       9.794       9.557       9.122       8.370       7.165       5.384       2.975      6.2394E-03
   8   10.000       9.921       9.794       9.557       9.122       8.370       7.165       5.384       2.975      6.2394E-03
   9   10.000       9.921       9.794       9.557       9.122       8.370       7.165       5.384       2.975      6.2394E-03
  10   10.000       9.921       9.794       9.557       9.122       8.370       7.165       5.384       2.975      6.2394E-03
1
              HEAD IN LAYER   3 AT END OF TIME STEP  79 IN STRESS PERIOD    2
  ---------------------------------------------------------------------------

            1           2           3           4           5           6           7           8           9          10
 ........................................................................................................................
   1   10.000       9.919       9.789       9.549       9.109       8.352       7.142       5.359       2.953      6.9601E-03
   2   10.000       9.919       9.789       9.549       9.109       8.352       7.142       5.359       2.953      6.9601E-03
   3   10.000       9.919       9.789       9.549       9.109       8.352       7.142       5.359       2.953      6.9601E-03
   4   10.000       9.919       9.789       9.549       9.109       8.352       7.142       5.359       2.953      6.9601E-03
   5   10.000       9.919       9.789       9.549       9.109       8.352       7.142       5.359       2.953      6.9601E-03
   6   10.000       9.919       9.789       9.549       9.109       8.352       7.142       5.359       2.953      6.9601E-03
   7   10.000       9.919       9.789       9.549       9.109       8.352       7.142       5.359       2.953      6.9601E-03
   8   10.000       9.919       9.789       9.549       9.109       8.352       7.142       5.359       2.953      6.9601E-03
   9   10.000       9.919       9.789       9.549       9.109       8.352       7.142       5.359       2.953      6.9601E-03
  10   10.000       9.919       9.789       9.549       9.109       8.352       7.142       5.359       2.953      6.9601E-03
1
              HEAD IN LAYER   4 AT END OF TIME STEP  79 IN STRESS PERIOD    2
  ---------------------------------------------------------------------------

            1           2           3           4           5           6           7           8           9          10
 ........................................................................................................................
   1   10.000       9.917       9.786       9.543       9.100       8.339       7.126       5.342       2.938      7.0232E-03
   2   10.000       9.917       9.786       9.543       9.100       8.339       7.126       5.342       2.938      7.0232E-03
   3   10.000       9.917       9.786       9.543       9.100       8.339       7.126       5.342       2.938      7.0232E-03
   4   10.000       9.917       9.786       9.543       9.100       8.339       7.126       5.342       2.938      7.0232E-03
   5   10.000       9.917       9.786       9.543       9.100       8.339       7.126       5.342       2.938      7.0232E-03
   6   10.000       9.917       9.786       9.543       9.100       8.339       7.126       5.342       2.938      7.0232E-03
   7   10.000       9.917       9.786       9.543       9.100       8.339       7.126       5.342       2.938      7.0232E-03
   8   10.000       9.917       9.786       9.543       9.100       8.339       7.126       5.342       2.938      7.0232E-03
   9   10.000       9.917       9.786       9.543       9.100       8.339       7.126       5.342       2.938      7.0232E-03
  10   10.000       9.917       9.786       9.543       9.100       8.339       7.126       5.342       2.938      7.0232E-03
1
              HEAD IN LAYER   5 AT END OF TIME STEP  79 IN STRESS PERIOD    2
  ---------------------------------------------------------------------------

            1           2           3           4           5           6           7           8           9          10
 ........................................................................................................................
   1   10.000       9.917       9.785       9.541       9.096       8.333       7.118       5.333       2.931      7.0180E-03
   2   10.000       9.917       9.785       9.541       9.096       8.333       7.118       5.333       2.931      7.0180E-03
   3   10.000       9.917       9.785       9.541       9.096       8.333       7.118       5.333       2.931      7.0180E-03
   4   10.000       9.917       9.785       9.541       9.096       8.333       7.118       5.333       2.931      7.0180E-03
   5   10.000       9.917       9.785       9.541       9.096       8.333       7.118       5.333       2.931      7.0180E-03
   6   10.000       9.917       9.785       9.541       9.096       8.333       7.118       5.333       2.931      7.0180E-03
   7   10.000       9.917       9.785       9.541       9.096       8.333       7.118       5.333       2.931      7.0180E-03
   8   10.000       9.917       9.785       9.541       9.096       8.333       7.118       5.333       2.931      7.0180E-03
   9   10.000       9.917       9.785       9.541       9.096       8.333       7.118       5.333       2.931      7.0180E-03
  10   10.000       9.917       9.785       9.541       9.096       8.333       7.118       5.333       2.931      7.0180E-03

 HEAD WILL BE SAVED ON UNIT   51 AT END OF TIME STEP   79, STRESS PERIOD    2

 DRAWDOWN WILL BE SAVED ON UNIT   52 AT END OF TIME STEP   79, STRESS PERIOD    2
1
  VOLUMETRIC BUDGET FOR ENTIRE MODEL AT END OF TIME STEP   79, STRESS PERIOD   2
  ------------------------------------------------------------------------------

     CUMULATIVE VOLUMES      L**3       RATES FOR THIS TIME STEP      L**3/T
     ------------------                 ------------------------

           IN:                                      IN:
           ---                                      ---
             STORAGE =      289103.9688               STORAGE =        1449.8328
       CONSTANT HEAD =           0.0000         CONSTANT HEAD =           0.0000
               WELLS =           0.0000                 WELLS =           0.0000
     HEAD DEP BOUNDS =         958.6431       HEAD DEP BOUNDS =          48.1773

            TOTAL IN =      290062.6250              TOTAL IN =        1498.0101

          OUT:                                     OUT:
          ----                                     ----
             STORAGE =           0.0000               STORAGE =           0.0000
       CONSTANT HEAD =           0.0000         CONSTANT HEAD =           0.0000
               WELLS =           0.0000                 WELLS =           0.0000
     HEAD DEP BOUNDS =      290064.2500       HEAD DEP BOUNDS =        1498.0658

           TOTAL OUT =      290064.2500             TOTAL OUT =        1498.0658

            IN - OUT =          -1.6250              IN - OUT =      -5.5664E-02

 PERCENT DISCREPANCY =          -0.00     PERCENT DISCREPANCY =          -0.00






         TIME SUMMARY AT END OF TIME STEP   79 IN STRESS PERIOD    2
                    SECONDS     MINUTES      HOURS       DAYS        YEARS
                    -----------------------------------------------------------
   TIME STEP LENGTH  86400.      1440.0      24.000      1.0000     2.73785E-03
 STRESS PERIOD TIME 6.82560E+06 1.13760E+05  1896.0      79.000     0.21629    
         TOTAL TIME 6.91200E+06 1.15200E+05  1920.0      80.000     0.21903    
1
 
 SOLVING FOR HEAD 

 OUTPUT CONTROL FOR STRESS PERIOD    2   TIME STEP   80
    SAVE HEAD FOR ALL LAYERS
    SAVE DRAWDOWN FOR ALL LAYERS
    SAVE BUDGET
    PRINT HEAD FOR ALL LAYERS
    PRINT BUDGET
 UBDSV1 SAVING "         STORAGE" ON UNIT  53 AT TIME STEP 80, STRESS PERIOD   2
 UBDSV2 SAVING "   CONSTANT HEAD" ON UNIT  53 AT TIME STEP 80, STRESS PERIOD   2
 UBDSV1 SAVING "FLOW RIGHT FACE " ON UNIT  53 AT TIME STEP 80, STRESS PERIOD   2
 UBDSV1 SAVING "FLOW FRONT FACE " ON UNIT  53 AT TIME STEP 80, STRESS PERIOD   2
 UBDSV1 SAVING "FLOW LOWER FACE " ON UNIT  53 AT TIME STEP 80, STRESS PERIOD   2
1
              HEAD IN LAYER   1 AT END OF TIME STEP  80 IN STRESS PERIOD    2
  ---------------------------------------------------------------------------

            1           2           3           4           5           6           7           8           9          10
 ........................................................................................................................
   1   10.000       9.920       9.793       9.556       9.121       8.369       7.164       5.384       2.977      2.7022E-03
   2   10.000       9.920       9.793       9.556       9.121       8.369       7.164       5.384       2.977      2.7022E-03
   3   10.000       9.920       9.793       9.556       9.121       8.369       7.164       5.384       2.977      2.7022E-03
   4   10.000       9.920       9.793       9.556       9.121       8.369       7.164       5.384       2.977      2.7022E-03
   5   10.000       9.920       9.793       9.556       9.121       8.369       7.164       5.384       2.977      2.7022E-03
   6   10.000       9.920       9.793       9.556       9.121       8.369       7.164       5.384       2.977      2.7022E-03
   7   10.000       9.920       9.793       9.556       9.121       8.369       7.164       5.384       2.977      2.7022E-03
   8   10.000       9.920       9.793       9.556       9.121       8.369       7.164       5.384       2.977      2.7022E-03
   9   10.000       9.920       9.793       9.556       9.121       8.369       7.164       5.384       2.977      2.7022E-03
  10   10.000       9.920       9.793       9.556       9.121       8.369       7.164       5.384       2.977      2.7022E-03
1
              HEAD IN LAYER   2 AT END OF TIME STEP  80 IN STRESS PERIOD    2
  ---------------------------------------------------------------------------

            1           2           3           4           5           6           7           8           9          10
 ........................................................................................................................
   1   10.000       9.918       9.787       9.546       9.104       8.346       7.137       5.357       2.956      6.2007E-03
   2   10.000       9.918       9.787       9.546       9.104       8.346       7.137       5.357       2.956      6.2007E-03
   3   10.000       9.918       9.787       9.546       9.104       8.346       7.137       5.357       2.956      6.2007E-03
   4   10.000       9.918       9.787       9.546       9.104       8.346       7.137       5.357       2.956      6.2007E-03
   5   10.000       9.918       9.787       9.546       9.104       8.346       7.137       5.357       2.956      6.2007E-03
   6   10.000       9.918       9.787       9.546       9.104       8.346       7.137       5.357       2.956      6.2007E-03
   7   10.000       9.918       9.787       9.546       9.104       8.346       7.137       5.357       2.956      6.2007E-03
   8   10.000       9.918       9.787       9.546       9.104       8.346       7.137       5.357       2.956      6.2007E-03
   9   10.000       9.918       9.787       9.546       9.104       8.346       7.137       5.357       2.956      6.2007E-03
  10   10.000       9.918       9.787       9.546       9.104       8.346       7.137       5.357       2.956      6.2007E-03
1
              HEAD IN LAYER   3 AT END OF TIME STEP  80 IN STRESS PERIOD    2
  ---------------------------------------------------------------------------

            1           2           3           4           5           6           7           8           9          10
 ........................................................................................................................
   1   10.000       9.916       9.783       9.537       9.091       8.328       7.114       5.332       2.935      6.9177E-03
   2   10.000       9.916       9.783       9.537       9.091       8.328       7.114       5.332       2.935      6.9177E-03
   3   10.000       9.916       9.783       9.537       9.091       8.328       7.114       5.332       2.935      6.9177E-03
   4   10.000       9.916       9.783       9.537       9.091       8.328       7.114       5.332       2.935      6.9177E-03
   5   10.000       9.916       9.783       9.537       9.091       8.328       7.114       5.332       2.935      6.9177E-03
   6   10.000       9.916       9.783       9.537       9.091       8.328       7.114       5.332       2.935      6.9177E-03
   7   10.000       9.916       9.783       9.537       9.091       8.328       7.114       5.332       2.935      6.9177E-03
   8   10.000       9.916       9.783       9.537       9.091       8.328       7.114       5.332       2.935      6.9177E-03
   9   10.000       9.916       9.783       9.537       9.091       8.328       7.114       5.332       2.935      6.9177E-03
  10   10.000       9.916       9.783       9.537       9.091       8.328       7.114       5.332       2.935      6.9177E-03
1
              HEAD IN LAYER   4 AT END OF TIME STEP  80 IN STRESS PERIOD    2
  ---------------------------------------------------------------------------

            1           2           3           4           5           6           7           8           9          10
 ........................................................................................................................
   1   10.000       9.914       9.780       9.532       9.083       8.316       7.098       5.315       2.920      6.9808E-03
   2   10.000       9.914       9.780       9.532       9.083       8.316       7.098       5.315       2.920      6.9808E-03
   3   10.000       9.914       9.780       9.532       9.083       8.316       7.098       5.315       2.920      6.9808E-03
   4   10.000       9.914       9.780       9.532       9.083       8.316       7.098       5.315       2.920      6.9808E-03
   5   10.000       9.914       9.780       9.532       9.083       8.316       7.098       5.315       2.920      6.9808E-03
   6   10.000       9.914       9.780       9.532       9.083       8.316       7.098       5.315       2.920      6.9808E-03
   7   10.000       9.914       9.780       9.532       9.083       8.316       7.098       5.315       2.920      6.9808E-03
   8   10.000       9.914       9.780       9.532       9.083       8.316       7.098       5.315       2.920      6.9808E-03
   9   10.000       9.914       9.780       9.532       9.083       8.316       7.098       5.315       2.920      6.9808E-03
  10   10.000       9.914       9.780       9.532       9.083       8.316       7.098       5.315       2.920      6.9808E-03
1
              HEAD IN LAYER   5 AT END OF TIME STEP  80 IN STRESS PERIOD    2
  ---------------------------------------------------------------------------

            1           2           3           4           5           6           7           8           9          10
 ........................................................................................................................
   1   10.000       9.914       9.778       9.529       9.078       8.309       7.090       5.306       2.913      6.9759E-03
   2   10.000       9.914       9.778       9.529       9.078       8.309       7.090       5.306       2.913      6.9759E-03
   3   10.000       9.914       9.778       9.529       9.078       8.309       7.090       5.306       2.913      6.9759E-03
   4   10.000       9.914       9.778       9.529       9.078       8.309       7.090       5.306       2.913      6.9759E-03
   5   10.000       9.914       9.778       9.529       9.078       8.309       7.090       5.306       2.913      6.9759E-03
   6   10.000       9.914       9.778       9.529       9.078       8.309       7.090       5.306       2.913      6.9759E-03
   7   10.000       9.914       9.778       9.529       9.078       8.309       7.090       5.306       2.913      6.9759E-03
   8   10.000       9.914       9.778       9.529       9.078       8.309       7.090       5.306       2.913      6.9759E-03
   9   10.000       9.914       9.778       9.529       9.078       8.309       7.090       5.306       2.913      6.9759E-03
  10   10.000       9.914       9.778       9.529       9.078       8.309       7.090       5.306       2.913      6.9759E-03

 HEAD WILL BE SAVED ON UNIT   51 AT END OF TIME STEP   80, STRESS PERIOD    2

 DRAWDOWN WILL BE SAVED ON UNIT   52 AT END OF TIME STEP   80, STRESS PERIOD    2
1
  VOLUMETRIC BUDGET FOR ENTIRE MODEL AT END OF TIME STEP   80, STRESS PERIOD   2
  ------------------------------------------------------------------------------

     CUMULATIVE VOLUMES      L**3       RATES FOR THIS TIME STEP      L**3/T
     ------------------                 ------------------------

           IN:                                      IN:
           ---                                      ---
             STORAGE =      290542.9062               STORAGE =        1438.9336
       CONSTANT HEAD =           0.0000         CONSTANT HEAD =           0.0000
               WELLS =           0.0000                 WELLS =           0.0000
     HEAD DEP BOUNDS =        1008.5749       HEAD DEP BOUNDS =          49.9318

            TOTAL IN =      291551.4688              TOTAL IN =        1488.8655

          OUT:                                     OUT:
          ----                                     ----
             STORAGE =           0.0000               STORAGE =           0.0000
       CONSTANT HEAD =           0.0000         CONSTANT HEAD =           0.0000
               WELLS =           0.0000                 WELLS =           0.0000
     HEAD DEP BOUNDS =      291553.1250       HEAD DEP BOUNDS =        1488.8660

           TOTAL OUT =      291553.1250             TOTAL OUT =        1488.8660

            IN - OUT =          -1.6562              IN - OUT =      -4.8828E-04

 PERCENT DISCREPANCY =          -0.00     PERCENT DISCREPANCY =          -0.00






         TIME SUMMARY AT END OF TIME STEP   80 IN STRESS PERIOD    2
                    SECONDS     MINUTES      HOURS       DAYS        YEARS
                    -----------------------------------------------------------
   TIME STEP LENGTH  86400.      1440.0      24.000      1.0000     2.73785E-03
 STRESS PERIOD TIME 6.91200E+06 1.15200E+05  1920.0      80.000     0.21903    
         TOTAL TIME 6.99840E+06 1.16640E+05  1944.0      81.000     0.22177    
1
 
 SOLVING FOR HEAD 

 OUTPUT CONTROL FOR STRESS PERIOD    2   TIME STEP   81
    SAVE HEAD FOR ALL LAYERS
    SAVE DRAWDOWN FOR ALL LAYERS
    SAVE BUDGET
    PRINT HEAD FOR ALL LAYERS
    PRINT BUDGET
 UBDSV1 SAVING "         STORAGE" ON UNIT  53 AT TIME STEP 81, STRESS PERIOD   2
 UBDSV2 SAVING "   CONSTANT HEAD" ON UNIT  53 AT TIME STEP 81, STRESS PERIOD   2
 UBDSV1 SAVING "FLOW RIGHT FACE " ON UNIT  53 AT TIME STEP 81, STRESS PERIOD   2
 UBDSV1 SAVING "FLOW FRONT FACE " ON UNIT  53 AT TIME STEP 81, STRESS PERIOD   2
 UBDSV1 SAVING "FLOW LOWER FACE " ON UNIT  53 AT TIME STEP 81, STRESS PERIOD   2
1
              HEAD IN LAYER   1 AT END OF TIME STEP  81 IN STRESS PERIOD    2
  ---------------------------------------------------------------------------

            1           2           3           4           5           6           7           8           9          10
 ........................................................................................................................
   1   10.000       9.918       9.787       9.545       9.104       8.345       7.136       5.357       2.959      2.6842E-03
   2   10.000       9.918       9.787       9.545       9.104       8.345       7.136       5.357       2.959      2.6842E-03
   3   10.000       9.918       9.787       9.545       9.104       8.345       7.136       5.357       2.959      2.6842E-03
   4   10.000       9.918       9.787       9.545       9.104       8.345       7.136       5.357       2.959      2.6842E-03
   5   10.000       9.918       9.787       9.545       9.104       8.345       7.136       5.357       2.959      2.6842E-03
   6   10.000       9.918       9.787       9.545       9.104       8.345       7.136       5.357       2.959      2.6842E-03
   7   10.000       9.918       9.787       9.545       9.104       8.345       7.136       5.357       2.959      2.6842E-03
   8   10.000       9.918       9.787       9.545       9.104       8.345       7.136       5.357       2.959      2.6842E-03
   9   10.000       9.918       9.787       9.545       9.104       8.345       7.136       5.357       2.959      2.6842E-03
  10   10.000       9.918       9.787       9.545       9.104       8.345       7.136       5.357       2.959      2.6842E-03
1
              HEAD IN LAYER   2 AT END OF TIME STEP  81 IN STRESS PERIOD    2
  ---------------------------------------------------------------------------

            1           2           3           4           5           6           7           8           9          10
 ........................................................................................................................
   1   10.000       9.915       9.781       9.534       9.087       8.322       7.109       5.330       2.938      6.1627E-03
   2   10.000       9.915       9.781       9.534       9.087       8.322       7.109       5.330       2.938      6.1627E-03
   3   10.000       9.915       9.781       9.534       9.087       8.322       7.109       5.330       2.938      6.1627E-03
   4   10.000       9.915       9.781       9.534       9.087       8.322       7.109       5.330       2.938      6.1627E-03
   5   10.000       9.915       9.781       9.534       9.087       8.322       7.109       5.330       2.938      6.1627E-03
   6   10.000       9.915       9.781       9.534       9.087       8.322       7.109       5.330       2.938      6.1627E-03
   7   10.000       9.915       9.781       9.534       9.087       8.322       7.109       5.330       2.938      6.1627E-03
   8   10.000       9.915       9.781       9.534       9.087       8.322       7.109       5.330       2.938      6.1627E-03
   9   10.000       9.915       9.781       9.534       9.087       8.322       7.109       5.330       2.938      6.1627E-03
  10   10.000       9.915       9.781       9.534       9.087       8.322       7.109       5.330       2.938      6.1627E-03
1
              HEAD IN LAYER   3 AT END OF TIME STEP  81 IN STRESS PERIOD    2
  ---------------------------------------------------------------------------

            1           2           3           4           5           6           7           8           9          10
 ........................................................................................................................
   1   10.000       9.913       9.776       9.526       9.074       8.304       7.086       5.305       2.917      6.8761E-03
   2   10.000       9.913       9.776       9.526       9.074       8.304       7.086       5.305       2.917      6.8761E-03
   3   10.000       9.913       9.776       9.526       9.074       8.304       7.086       5.305       2.917      6.8761E-03
   4   10.000       9.913       9.776       9.526       9.074       8.304       7.086       5.305       2.917      6.8761E-03
   5   10.000       9.913       9.776       9.526       9.074       8.304       7.086       5.305       2.917      6.8761E-03
   6   10.000       9.913       9.776       9.526       9.074       8.304       7.086       5.305       2.917      6.8761E-03
   7   10.000       9.913       9.776       9.526       9.074       8.304       7.086       5.305       2.917      6.8761E-03
   8   10.000       9.913       9.776       9.526       9.074       8.304       7.086       5.305       2.917      6.8761E-03
   9   10.000       9.913       9.776       9.526       9.074       8.304       7.086       5.305       2.917      6.8761E-03
  10   10.000       9.913       9.776       9.526       9.074       8.304       7.086       5.305       2.917      6.8761E-03
1
              HEAD IN LAYER   4 AT END OF TIME STEP  81 IN STRESS PERIOD    2
  ---------------------------------------------------------------------------

            1           2           3           4           5           6           7           8           9          10
 ........................................................................................................................
   1   10.000       9.912       9.773       9.520       9.065       8.292       7.070       5.288       2.903      6.9391E-03
   2   10.000       9.912       9.773       9.520       9.065       8.292       7.070       5.288       2.903      6.9391E-03
   3   10.000       9.912       9.773       9.520       9.065       8.292       7.070       5.288       2.903      6.9391E-03
   4   10.000       9.912       9.773       9.520       9.065       8.292       7.070       5.288       2.903      6.9391E-03
   5   10.000       9.912       9.773       9.520       9.065       8.292       7.070       5.288       2.903      6.9391E-03
   6   10.000       9.912       9.773       9.520       9.065       8.292       7.070       5.288       2.903      6.9391E-03
   7   10.000       9.912       9.773       9.520       9.065       8.292       7.070       5.288       2.903      6.9391E-03
   8   10.000       9.912       9.773       9.520       9.065       8.292       7.070       5.288       2.903      6.9391E-03
   9   10.000       9.912       9.773       9.520       9.065       8.292       7.070       5.288       2.903      6.9391E-03
  10   10.000       9.912       9.773       9.520       9.065       8.292       7.070       5.288       2.903      6.9391E-03
1
              HEAD IN LAYER   5 AT END OF TIME STEP  81 IN STRESS PERIOD    2
  ---------------------------------------------------------------------------

            1           2           3           4           5           6           7           8           9          10
 ........................................................................................................................
   1   10.000       9.911       9.772       9.518       9.061       8.286       7.063       5.280       2.896      6.9344E-03
   2   10.000       9.911       9.772       9.518       9.061       8.286       7.063       5.280       2.896      6.9344E-03
   3   10.000       9.911       9.772       9.518       9.061       8.286       7.063       5.280       2.896      6.9344E-03
   4   10.000       9.911       9.772       9.518       9.061       8.286       7.063       5.280       2.896      6.9344E-03
   5   10.000       9.911       9.772       9.518       9.061       8.286       7.063       5.280       2.896      6.9344E-03
   6   10.000       9.911       9.772       9.518       9.061       8.286       7.063       5.280       2.896      6.9344E-03
   7   10.000       9.911       9.772       9.518       9.061       8.286       7.063       5.280       2.896      6.9344E-03
   8   10.000       9.911       9.772       9.518       9.061       8.286       7.063       5.280       2.896      6.9344E-03
   9   10.000       9.911       9.772       9.518       9.061       8.286       7.063       5.280       2.896      6.9344E-03
  10   10.000       9.911       9.772       9.518       9.061       8.286       7.063       5.280       2.896      6.9344E-03

 HEAD WILL BE SAVED ON UNIT   51 AT END OF TIME STEP   81, STRESS PERIOD    2

 DRAWDOWN WILL BE SAVED ON UNIT   52 AT END OF TIME STEP   81, STRESS PERIOD    2
1
  VOLUMETRIC BUDGET FOR ENTIRE MODEL AT END OF TIME STEP   81, STRESS PERIOD   2
  ------------------------------------------------------------------------------

     CUMULATIVE VOLUMES      L**3       RATES FOR THIS TIME STEP      L**3/T
     ------------------                 ------------------------

           IN:                                      IN:
           ---                                      ---
             STORAGE =      291971.0625               STORAGE =        1428.1591
       CONSTANT HEAD =           0.0000         CONSTANT HEAD =           0.0000
               WELLS =           0.0000                 WELLS =           0.0000
     HEAD DEP BOUNDS =        1060.2947       HEAD DEP BOUNDS =          51.7198

            TOTAL IN =      293031.3438              TOTAL IN =        1479.8789

          OUT:                                     OUT:
          ----                                     ----
             STORAGE =           0.0000               STORAGE =           0.0000
       CONSTANT HEAD =           0.0000         CONSTANT HEAD =           0.0000
               WELLS =           0.0000                 WELLS =           0.0000
     HEAD DEP BOUNDS =      293032.9375       HEAD DEP BOUNDS =        1479.8279

           TOTAL OUT =      293032.9375             TOTAL OUT =        1479.8279

            IN - OUT =          -1.5938              IN - OUT =       5.1025E-02

 PERCENT DISCREPANCY =          -0.00     PERCENT DISCREPANCY =           0.00






         TIME SUMMARY AT END OF TIME STEP   81 IN STRESS PERIOD    2
                    SECONDS     MINUTES      HOURS       DAYS        YEARS
                    -----------------------------------------------------------
   TIME STEP LENGTH  86400.      1440.0      24.000      1.0000     2.73785E-03
 STRESS PERIOD TIME 6.99840E+06 1.16640E+05  1944.0      81.000     0.22177    
         TOTAL TIME 7.08480E+06 1.18080E+05  1968.0      82.000     0.22450    
1
 
 SOLVING FOR HEAD 

 OUTPUT CONTROL FOR STRESS PERIOD    2   TIME STEP   82
    SAVE HEAD FOR ALL LAYERS
    SAVE DRAWDOWN FOR ALL LAYERS
    SAVE BUDGET
    PRINT HEAD FOR ALL LAYERS
    PRINT BUDGET
 UBDSV1 SAVING "         STORAGE" ON UNIT  53 AT TIME STEP 82, STRESS PERIOD   2
 UBDSV2 SAVING "   CONSTANT HEAD" ON UNIT  53 AT TIME STEP 82, STRESS PERIOD   2
 UBDSV1 SAVING "FLOW RIGHT FACE " ON UNIT  53 AT TIME STEP 82, STRESS PERIOD   2
 UBDSV1 SAVING "FLOW FRONT FACE " ON UNIT  53 AT TIME STEP 82, STRESS PERIOD   2
 UBDSV1 SAVING "FLOW LOWER FACE " ON UNIT  53 AT TIME STEP 82, STRESS PERIOD   2
1
              HEAD IN LAYER   1 AT END OF TIME STEP  82 IN STRESS PERIOD    2
  ---------------------------------------------------------------------------

            1           2           3           4           5           6           7           8           9          10
 ........................................................................................................................
   1   10.000       9.915       9.780       9.534       9.086       8.321       7.108       5.330       2.941      2.6665E-03
   2   10.000       9.915       9.780       9.534       9.086       8.321       7.108       5.330       2.941      2.6665E-03
   3   10.000       9.915       9.780       9.534       9.086       8.321       7.108       5.330       2.941      2.6665E-03
   4   10.000       9.915       9.780       9.534       9.086       8.321       7.108       5.330       2.941      2.6665E-03
   5   10.000       9.915       9.780       9.534       9.086       8.321       7.108       5.330       2.941      2.6665E-03
   6   10.000       9.915       9.780       9.534       9.086       8.321       7.108       5.330       2.941      2.6665E-03
   7   10.000       9.915       9.780       9.534       9.086       8.321       7.108       5.330       2.941      2.6665E-03
   8   10.000       9.915       9.780       9.534       9.086       8.321       7.108       5.330       2.941      2.6665E-03
   9   10.000       9.915       9.780       9.534       9.086       8.321       7.108       5.330       2.941      2.6665E-03
  10   10.000       9.915       9.780       9.534       9.086       8.321       7.108       5.330       2.941      2.6665E-03
1
              HEAD IN LAYER   2 AT END OF TIME STEP  82 IN STRESS PERIOD    2
  ---------------------------------------------------------------------------

            1           2           3           4           5           6           7           8           9          10
 ........................................................................................................................
   1   10.000       9.912       9.774       9.523       9.069       8.299       7.081       5.303       2.921      6.1255E-03
   2   10.000       9.912       9.774       9.523       9.069       8.299       7.081       5.303       2.921      6.1255E-03
   3   10.000       9.912       9.774       9.523       9.069       8.299       7.081       5.303       2.921      6.1255E-03
   4   10.000       9.912       9.774       9.523       9.069       8.299       7.081       5.303       2.921      6.1255E-03
   5   10.000       9.912       9.774       9.523       9.069       8.299       7.081       5.303       2.921      6.1255E-03
   6   10.000       9.912       9.774       9.523       9.069       8.299       7.081       5.303       2.921      6.1255E-03
   7   10.000       9.912       9.774       9.523       9.069       8.299       7.081       5.303       2.921      6.1255E-03
   8   10.000       9.912       9.774       9.523       9.069       8.299       7.081       5.303       2.921      6.1255E-03
   9   10.000       9.912       9.774       9.523       9.069       8.299       7.081       5.303       2.921      6.1255E-03
  10   10.000       9.912       9.774       9.523       9.069       8.299       7.081       5.303       2.921      6.1255E-03
1
              HEAD IN LAYER   3 AT END OF TIME STEP  82 IN STRESS PERIOD    2
  ---------------------------------------------------------------------------

            1           2           3           4           5           6           7           8           9          10
 ........................................................................................................................
   1   10.000       9.910       9.770       9.515       9.056       8.280       7.058       5.278       2.900      6.8352E-03
   2   10.000       9.910       9.770       9.515       9.056       8.280       7.058       5.278       2.900      6.8352E-03
   3   10.000       9.910       9.770       9.515       9.056       8.280       7.058       5.278       2.900      6.8352E-03
   4   10.000       9.910       9.770       9.515       9.056       8.280       7.058       5.278       2.900      6.8352E-03
   5   10.000       9.910       9.770       9.515       9.056       8.280       7.058       5.278       2.900      6.8352E-03
   6   10.000       9.910       9.770       9.515       9.056       8.280       7.058       5.278       2.900      6.8352E-03
   7   10.000       9.910       9.770       9.515       9.056       8.280       7.058       5.278       2.900      6.8352E-03
   8   10.000       9.910       9.770       9.515       9.056       8.280       7.058       5.278       2.900      6.8352E-03
   9   10.000       9.910       9.770       9.515       9.056       8.280       7.058       5.278       2.900      6.8352E-03
  10   10.000       9.910       9.770       9.515       9.056       8.280       7.058       5.278       2.900      6.8352E-03
1
              HEAD IN LAYER   4 AT END OF TIME STEP  82 IN STRESS PERIOD    2
  ---------------------------------------------------------------------------

            1           2           3           4           5           6           7           8           9          10
 ........................................................................................................................
   1   10.000       9.909       9.766       9.509       9.048       8.268       7.043       5.262       2.886      6.8982E-03
   2   10.000       9.909       9.766       9.509       9.048       8.268       7.043       5.262       2.886      6.8982E-03
   3   10.000       9.909       9.766       9.509       9.048       8.268       7.043       5.262       2.886      6.8982E-03
   4   10.000       9.909       9.766       9.509       9.048       8.268       7.043       5.262       2.886      6.8982E-03
   5   10.000       9.909       9.766       9.509       9.048       8.268       7.043       5.262       2.886      6.8982E-03
   6   10.000       9.909       9.766       9.509       9.048       8.268       7.043       5.262       2.886      6.8982E-03
   7   10.000       9.909       9.766       9.509       9.048       8.268       7.043       5.262       2.886      6.8982E-03
   8   10.000       9.909       9.766       9.509       9.048       8.268       7.043       5.262       2.886      6.8982E-03
   9   10.000       9.909       9.766       9.509       9.048       8.268       7.043       5.262       2.886      6.8982E-03
  10   10.000       9.909       9.766       9.509       9.048       8.268       7.043       5.262       2.886      6.8982E-03
1
              HEAD IN LAYER   5 AT END OF TIME STEP  82 IN STRESS PERIOD    2
  ---------------------------------------------------------------------------

            1           2           3           4           5           6           7           8           9          10
 ........................................................................................................................
   1   10.000       9.908       9.765       9.506       9.043       8.262       7.035       5.254       2.879      6.8937E-03
   2   10.000       9.908       9.765       9.506       9.043       8.262       7.035       5.254       2.879      6.8937E-03
   3   10.000       9.908       9.765       9.506       9.043       8.262       7.035       5.254       2.879      6.8937E-03
   4   10.000       9.908       9.765       9.506       9.043       8.262       7.035       5.254       2.879      6.8937E-03
   5   10.000       9.908       9.765       9.506       9.043       8.262       7.035       5.254       2.879      6.8937E-03
   6   10.000       9.908       9.765       9.506       9.043       8.262       7.035       5.254       2.879      6.8937E-03
   7   10.000       9.908       9.765       9.506       9.043       8.262       7.035       5.254       2.879      6.8937E-03
   8   10.000       9.908       9.765       9.506       9.043       8.262       7.035       5.254       2.879      6.8937E-03
   9   10.000       9.908       9.765       9.506       9.043       8.262       7.035       5.254       2.879      6.8937E-03
  10   10.000       9.908       9.765       9.506       9.043       8.262       7.035       5.254       2.879      6.8937E-03

 HEAD WILL BE SAVED ON UNIT   51 AT END OF TIME STEP   82, STRESS PERIOD    2

 DRAWDOWN WILL BE SAVED ON UNIT   52 AT END OF TIME STEP   82, STRESS PERIOD    2
1
  VOLUMETRIC BUDGET FOR ENTIRE MODEL AT END OF TIME STEP   82, STRESS PERIOD   2
  ------------------------------------------------------------------------------

     CUMULATIVE VOLUMES      L**3       RATES FOR THIS TIME STEP      L**3/T
     ------------------                 ------------------------

           IN:                                      IN:
           ---                                      ---
             STORAGE =      293388.6562               STORAGE =        1417.5864
       CONSTANT HEAD =           0.0000         CONSTANT HEAD =           0.0000
               WELLS =           0.0000                 WELLS =           0.0000
     HEAD DEP BOUNDS =        1113.7778       HEAD DEP BOUNDS =          53.4831

            TOTAL IN =      294502.4375              TOTAL IN =        1471.0696

          OUT:                                     OUT:
          ----                                     ----
             STORAGE =           0.0000               STORAGE =           0.0000
       CONSTANT HEAD =           0.0000         CONSTANT HEAD =           0.0000
               WELLS =           0.0000                 WELLS =           0.0000
     HEAD DEP BOUNDS =      294503.9062       HEAD DEP BOUNDS =        1470.9553

           TOTAL OUT =      294503.9062             TOTAL OUT =        1470.9553

            IN - OUT =          -1.4688              IN - OUT =           0.1143

 PERCENT DISCREPANCY =          -0.00     PERCENT DISCREPANCY =           0.01






         TIME SUMMARY AT END OF TIME STEP   82 IN STRESS PERIOD    2
                    SECONDS     MINUTES      HOURS       DAYS        YEARS
                    -----------------------------------------------------------
   TIME STEP LENGTH  86400.      1440.0      24.000      1.0000     2.73785E-03
 STRESS PERIOD TIME 7.08480E+06 1.18080E+05  1968.0      82.000     0.22450    
         TOTAL TIME 7.17120E+06 1.19520E+05  1992.0      83.000     0.22724    
1
 
 SOLVING FOR HEAD 

 OUTPUT CONTROL FOR STRESS PERIOD    2   TIME STEP   83
    SAVE HEAD FOR ALL LAYERS
    SAVE DRAWDOWN FOR ALL LAYERS
    SAVE BUDGET
    PRINT HEAD FOR ALL LAYERS
    PRINT BUDGET
 UBDSV1 SAVING "         STORAGE" ON UNIT  53 AT TIME STEP 83, STRESS PERIOD   2
 UBDSV2 SAVING "   CONSTANT HEAD" ON UNIT  53 AT TIME STEP 83, STRESS PERIOD   2
 UBDSV1 SAVING "FLOW RIGHT FACE " ON UNIT  53 AT TIME STEP 83, STRESS PERIOD   2
 UBDSV1 SAVING "FLOW FRONT FACE " ON UNIT  53 AT TIME STEP 83, STRESS PERIOD   2
 UBDSV1 SAVING "FLOW LOWER FACE " ON UNIT  53 AT TIME STEP 83, STRESS PERIOD   2
1
              HEAD IN LAYER   1 AT END OF TIME STEP  83 IN STRESS PERIOD    2
  ---------------------------------------------------------------------------

            1           2           3           4           5           6           7           8           9          10
 ........................................................................................................................
   1   10.000       9.912       9.774       9.522       9.068       8.298       7.080       5.303       2.923      2.6490E-03
   2   10.000       9.912       9.774       9.522       9.068       8.298       7.080       5.303       2.923      2.6490E-03
   3   10.000       9.912       9.774       9.522       9.068       8.298       7.080       5.303       2.923      2.6490E-03
   4   10.000       9.912       9.774       9.522       9.068       8.298       7.080       5.303       2.923      2.6490E-03
   5   10.000       9.912       9.774       9.522       9.068       8.298       7.080       5.303       2.923      2.6490E-03
   6   10.000       9.912       9.774       9.522       9.068       8.298       7.080       5.303       2.923      2.6490E-03
   7   10.000       9.912       9.774       9.522       9.068       8.298       7.080       5.303       2.923      2.6490E-03
   8   10.000       9.912       9.774       9.522       9.068       8.298       7.080       5.303       2.923      2.6490E-03
   9   10.000       9.912       9.774       9.522       9.068       8.298       7.080       5.303       2.923      2.6490E-03
  10   10.000       9.912       9.774       9.522       9.068       8.298       7.080       5.303       2.923      2.6490E-03
1
              HEAD IN LAYER   2 AT END OF TIME STEP  83 IN STRESS PERIOD    2
  ---------------------------------------------------------------------------

            1           2           3           4           5           6           7           8           9          10
 ........................................................................................................................
   1   10.000       9.909       9.768       9.511       9.052       8.275       7.053       5.277       2.903      6.0888E-03
   2   10.000       9.909       9.768       9.511       9.052       8.275       7.053       5.277       2.903      6.0888E-03
   3   10.000       9.909       9.768       9.511       9.052       8.275       7.053       5.277       2.903      6.0888E-03
   4   10.000       9.909       9.768       9.511       9.052       8.275       7.053       5.277       2.903      6.0888E-03
   5   10.000       9.909       9.768       9.511       9.052       8.275       7.053       5.277       2.903      6.0888E-03
   6   10.000       9.909       9.768       9.511       9.052       8.275       7.053       5.277       2.903      6.0888E-03
   7   10.000       9.909       9.768       9.511       9.052       8.275       7.053       5.277       2.903      6.0888E-03
   8   10.000       9.909       9.768       9.511       9.052       8.275       7.053       5.277       2.903      6.0888E-03
   9   10.000       9.909       9.768       9.511       9.052       8.275       7.053       5.277       2.903      6.0888E-03
  10   10.000       9.909       9.768       9.511       9.052       8.275       7.053       5.277       2.903      6.0888E-03
1
              HEAD IN LAYER   3 AT END OF TIME STEP  83 IN STRESS PERIOD    2
  ---------------------------------------------------------------------------

            1           2           3           4           5           6           7           8           9          10
 ........................................................................................................................
   1   10.000       9.907       9.763       9.503       9.039       8.257       7.031       5.252       2.883      6.7950E-03
   2   10.000       9.907       9.763       9.503       9.039       8.257       7.031       5.252       2.883      6.7950E-03
   3   10.000       9.907       9.763       9.503       9.039       8.257       7.031       5.252       2.883      6.7950E-03
   4   10.000       9.907       9.763       9.503       9.039       8.257       7.031       5.252       2.883      6.7950E-03
   5   10.000       9.907       9.763       9.503       9.039       8.257       7.031       5.252       2.883      6.7950E-03
   6   10.000       9.907       9.763       9.503       9.039       8.257       7.031       5.252       2.883      6.7950E-03
   7   10.000       9.907       9.763       9.503       9.039       8.257       7.031       5.252       2.883      6.7950E-03
   8   10.000       9.907       9.763       9.503       9.039       8.257       7.031       5.252       2.883      6.7950E-03
   9   10.000       9.907       9.763       9.503       9.039       8.257       7.031       5.252       2.883      6.7950E-03
  10   10.000       9.907       9.763       9.503       9.039       8.257       7.031       5.252       2.883      6.7950E-03
1
              HEAD IN LAYER   4 AT END OF TIME STEP  83 IN STRESS PERIOD    2
  ---------------------------------------------------------------------------

            1           2           3           4           5           6           7           8           9          10
 ........................................................................................................................
   1   10.000       9.906       9.760       9.497       9.030       8.245       7.016       5.236       2.869      6.8580E-03
   2   10.000       9.906       9.760       9.497       9.030       8.245       7.016       5.236       2.869      6.8580E-03
   3   10.000       9.906       9.760       9.497       9.030       8.245       7.016       5.236       2.869      6.8580E-03
   4   10.000       9.906       9.760       9.497       9.030       8.245       7.016       5.236       2.869      6.8580E-03
   5   10.000       9.906       9.760       9.497       9.030       8.245       7.016       5.236       2.869      6.8580E-03
   6   10.000       9.906       9.760       9.497       9.030       8.245       7.016       5.236       2.869      6.8580E-03
   7   10.000       9.906       9.760       9.497       9.030       8.245       7.016       5.236       2.869      6.8580E-03
   8   10.000       9.906       9.760       9.497       9.030       8.245       7.016       5.236       2.869      6.8580E-03
   9   10.000       9.906       9.760       9.497       9.030       8.245       7.016       5.236       2.869      6.8580E-03
  10   10.000       9.906       9.760       9.497       9.030       8.245       7.016       5.236       2.869      6.8580E-03
1
              HEAD IN LAYER   5 AT END OF TIME STEP  83 IN STRESS PERIOD    2
  ---------------------------------------------------------------------------

            1           2           3           4           5           6           7           8           9          10
 ........................................................................................................................
   1   10.000       9.905       9.758       9.495       9.026       8.239       7.008       5.228       2.862      6.8536E-03
   2   10.000       9.905       9.758       9.495       9.026       8.239       7.008       5.228       2.862      6.8536E-03
   3   10.000       9.905       9.758       9.495       9.026       8.239       7.008       5.228       2.862      6.8536E-03
   4   10.000       9.905       9.758       9.495       9.026       8.239       7.008       5.228       2.862      6.8536E-03
   5   10.000       9.905       9.758       9.495       9.026       8.239       7.008       5.228       2.862      6.8536E-03
   6   10.000       9.905       9.758       9.495       9.026       8.239       7.008       5.228       2.862      6.8536E-03
   7   10.000       9.905       9.758       9.495       9.026       8.239       7.008       5.228       2.862      6.8536E-03
   8   10.000       9.905       9.758       9.495       9.026       8.239       7.008       5.228       2.862      6.8536E-03
   9   10.000       9.905       9.758       9.495       9.026       8.239       7.008       5.228       2.862      6.8536E-03
  10   10.000       9.905       9.758       9.495       9.026       8.239       7.008       5.228       2.862      6.8536E-03

 HEAD WILL BE SAVED ON UNIT   51 AT END OF TIME STEP   83, STRESS PERIOD    2

 DRAWDOWN WILL BE SAVED ON UNIT   52 AT END OF TIME STEP   83, STRESS PERIOD    2
1
  VOLUMETRIC BUDGET FOR ENTIRE MODEL AT END OF TIME STEP   83, STRESS PERIOD   2
  ------------------------------------------------------------------------------

     CUMULATIVE VOLUMES      L**3       RATES FOR THIS TIME STEP      L**3/T
     ------------------                 ------------------------

           IN:                                      IN:
           ---                                      ---
             STORAGE =      294795.7188               STORAGE =        1407.0551
       CONSTANT HEAD =           0.0000         CONSTANT HEAD =           0.0000
               WELLS =           0.0000                 WELLS =           0.0000
     HEAD DEP BOUNDS =        1169.0468       HEAD DEP BOUNDS =          55.2689

            TOTAL IN =      295964.7500              TOTAL IN =        1462.3240

          OUT:                                     OUT:
          ----                                     ----
             STORAGE =           0.0000               STORAGE =           0.0000
       CONSTANT HEAD =           0.0000         CONSTANT HEAD =           0.0000
               WELLS =           0.0000                 WELLS =           0.0000
     HEAD DEP BOUNDS =      295966.1250       HEAD DEP BOUNDS =        1462.2273

           TOTAL OUT =      295966.1250             TOTAL OUT =        1462.2273

            IN - OUT =          -1.3750              IN - OUT =       9.6680E-02

 PERCENT DISCREPANCY =          -0.00     PERCENT DISCREPANCY =           0.01






         TIME SUMMARY AT END OF TIME STEP   83 IN STRESS PERIOD    2
                    SECONDS     MINUTES      HOURS       DAYS        YEARS
                    -----------------------------------------------------------
   TIME STEP LENGTH  86400.      1440.0      24.000      1.0000     2.73785E-03
 STRESS PERIOD TIME 7.17120E+06 1.19520E+05  1992.0      83.000     0.22724    
         TOTAL TIME 7.25760E+06 1.20960E+05  2016.0      84.000     0.22998    
1
 
 SOLVING FOR HEAD 

 OUTPUT CONTROL FOR STRESS PERIOD    2   TIME STEP   84
    SAVE HEAD FOR ALL LAYERS
    SAVE DRAWDOWN FOR ALL LAYERS
    SAVE BUDGET
    PRINT HEAD FOR ALL LAYERS
    PRINT BUDGET
 UBDSV1 SAVING "         STORAGE" ON UNIT  53 AT TIME STEP 84, STRESS PERIOD   2
 UBDSV2 SAVING "   CONSTANT HEAD" ON UNIT  53 AT TIME STEP 84, STRESS PERIOD   2
 UBDSV1 SAVING "FLOW RIGHT FACE " ON UNIT  53 AT TIME STEP 84, STRESS PERIOD   2
 UBDSV1 SAVING "FLOW FRONT FACE " ON UNIT  53 AT TIME STEP 84, STRESS PERIOD   2
 UBDSV1 SAVING "FLOW LOWER FACE " ON UNIT  53 AT TIME STEP 84, STRESS PERIOD   2
1
              HEAD IN LAYER   1 AT END OF TIME STEP  84 IN STRESS PERIOD    2
  ---------------------------------------------------------------------------

            1           2           3           4           5           6           7           8           9          10
 ........................................................................................................................
   1   10.000       9.909       9.767       9.511       9.051       8.274       7.052       5.277       2.906      2.6321E-03
   2   10.000       9.909       9.767       9.511       9.051       8.274       7.052       5.277       2.906      2.6321E-03
   3   10.000       9.909       9.767       9.511       9.051       8.274       7.052       5.277       2.906      2.6321E-03
   4   10.000       9.909       9.767       9.511       9.051       8.274       7.052       5.277       2.906      2.6321E-03
   5   10.000       9.909       9.767       9.511       9.051       8.274       7.052       5.277       2.906      2.6321E-03
   6   10.000       9.909       9.767       9.511       9.051       8.274       7.052       5.277       2.906      2.6321E-03
   7   10.000       9.909       9.767       9.511       9.051       8.274       7.052       5.277       2.906      2.6321E-03
   8   10.000       9.909       9.767       9.511       9.051       8.274       7.052       5.277       2.906      2.6321E-03
   9   10.000       9.909       9.767       9.511       9.051       8.274       7.052       5.277       2.906      2.6321E-03
  10   10.000       9.909       9.767       9.511       9.051       8.274       7.052       5.277       2.906      2.6321E-03
1
              HEAD IN LAYER   2 AT END OF TIME STEP  84 IN STRESS PERIOD    2
  ---------------------------------------------------------------------------

            1           2           3           4           5           6           7           8           9          10
 ........................................................................................................................
   1   10.000       9.906       9.761       9.500       9.034       8.252       7.026       5.251       2.886      6.0528E-03
   2   10.000       9.906       9.761       9.500       9.034       8.252       7.026       5.251       2.886      6.0528E-03
   3   10.000       9.906       9.761       9.500       9.034       8.252       7.026       5.251       2.886      6.0528E-03
   4   10.000       9.906       9.761       9.500       9.034       8.252       7.026       5.251       2.886      6.0528E-03
   5   10.000       9.906       9.761       9.500       9.034       8.252       7.026       5.251       2.886      6.0528E-03
   6   10.000       9.906       9.761       9.500       9.034       8.252       7.026       5.251       2.886      6.0528E-03
   7   10.000       9.906       9.761       9.500       9.034       8.252       7.026       5.251       2.886      6.0528E-03
   8   10.000       9.906       9.761       9.500       9.034       8.252       7.026       5.251       2.886      6.0528E-03
   9   10.000       9.906       9.761       9.500       9.034       8.252       7.026       5.251       2.886      6.0528E-03
  10   10.000       9.906       9.761       9.500       9.034       8.252       7.026       5.251       2.886      6.0528E-03
1
              HEAD IN LAYER   3 AT END OF TIME STEP  84 IN STRESS PERIOD    2
  ---------------------------------------------------------------------------

            1           2           3           4           5           6           7           8           9          10
 ........................................................................................................................
   1   10.000       9.904       9.756       9.491       9.021       8.234       7.004       5.227       2.866      6.7556E-03
   2   10.000       9.904       9.756       9.491       9.021       8.234       7.004       5.227       2.866      6.7556E-03
   3   10.000       9.904       9.756       9.491       9.021       8.234       7.004       5.227       2.866      6.7556E-03
   4   10.000       9.904       9.756       9.491       9.021       8.234       7.004       5.227       2.866      6.7556E-03
   5   10.000       9.904       9.756       9.491       9.021       8.234       7.004       5.227       2.866      6.7556E-03
   6   10.000       9.904       9.756       9.491       9.021       8.234       7.004       5.227       2.866      6.7556E-03
   7   10.000       9.904       9.756       9.491       9.021       8.234       7.004       5.227       2.866      6.7556E-03
   8   10.000       9.904       9.756       9.491       9.021       8.234       7.004       5.227       2.866      6.7556E-03
   9   10.000       9.904       9.756       9.491       9.021       8.234       7.004       5.227       2.866      6.7556E-03
  10   10.000       9.904       9.756       9.491       9.021       8.234       7.004       5.227       2.866      6.7556E-03
1
              HEAD IN LAYER   4 AT END OF TIME STEP  84 IN STRESS PERIOD    2
  ---------------------------------------------------------------------------

            1           2           3           4           5           6           7           8           9          10
 ........................................................................................................................
   1   10.000       9.903       9.753       9.486       9.013       8.222       6.989       5.211       2.852      6.8185E-03
   2   10.000       9.903       9.753       9.486       9.013       8.222       6.989       5.211       2.852      6.8185E-03
   3   10.000       9.903       9.753       9.486       9.013       8.222       6.989       5.211       2.852      6.8185E-03
   4   10.000       9.903       9.753       9.486       9.013       8.222       6.989       5.211       2.852      6.8185E-03
   5   10.000       9.903       9.753       9.486       9.013       8.222       6.989       5.211       2.852      6.8185E-03
   6   10.000       9.903       9.753       9.486       9.013       8.222       6.989       5.211       2.852      6.8185E-03
   7   10.000       9.903       9.753       9.486       9.013       8.222       6.989       5.211       2.852      6.8185E-03
   8   10.000       9.903       9.753       9.486       9.013       8.222       6.989       5.211       2.852      6.8185E-03
   9   10.000       9.903       9.753       9.486       9.013       8.222       6.989       5.211       2.852      6.8185E-03
  10   10.000       9.903       9.753       9.486       9.013       8.222       6.989       5.211       2.852      6.8185E-03
1
              HEAD IN LAYER   5 AT END OF TIME STEP  84 IN STRESS PERIOD    2
  ---------------------------------------------------------------------------

            1           2           3           4           5           6           7           8           9          10
 ........................................................................................................................
   1   10.000       9.902       9.751       9.483       9.008       8.216       6.981       5.203       2.846      6.8143E-03
   2   10.000       9.902       9.751       9.483       9.008       8.216       6.981       5.203       2.846      6.8143E-03
   3   10.000       9.902       9.751       9.483       9.008       8.216       6.981       5.203       2.846      6.8143E-03
   4   10.000       9.902       9.751       9.483       9.008       8.216       6.981       5.203       2.846      6.8143E-03
   5   10.000       9.902       9.751       9.483       9.008       8.216       6.981       5.203       2.846      6.8143E-03
   6   10.000       9.902       9.751       9.483       9.008       8.216       6.981       5.203       2.846      6.8143E-03
   7   10.000       9.902       9.751       9.483       9.008       8.216       6.981       5.203       2.846      6.8143E-03
   8   10.000       9.902       9.751       9.483       9.008       8.216       6.981       5.203       2.846      6.8143E-03
   9   10.000       9.902       9.751       9.483       9.008       8.216       6.981       5.203       2.846      6.8143E-03
  10   10.000       9.902       9.751       9.483       9.008       8.216       6.981       5.203       2.846      6.8143E-03

 HEAD WILL BE SAVED ON UNIT   51 AT END OF TIME STEP   84, STRESS PERIOD    2

 DRAWDOWN WILL BE SAVED ON UNIT   52 AT END OF TIME STEP   84, STRESS PERIOD    2
1
  VOLUMETRIC BUDGET FOR ENTIRE MODEL AT END OF TIME STEP   84, STRESS PERIOD   2
  ------------------------------------------------------------------------------

     CUMULATIVE VOLUMES      L**3       RATES FOR THIS TIME STEP      L**3/T
     ------------------                 ------------------------

           IN:                                      IN:
           ---                                      ---
             STORAGE =      296192.4062               STORAGE =        1396.6815
       CONSTANT HEAD =           0.0000         CONSTANT HEAD =           0.0000
               WELLS =           0.0000                 WELLS =           0.0000
     HEAD DEP BOUNDS =        1226.0559       HEAD DEP BOUNDS =          57.0091

            TOTAL IN =      297418.4688              TOTAL IN =        1453.6907

          OUT:                                     OUT:
          ----                                     ----
             STORAGE =           0.0000               STORAGE =           0.0000
       CONSTANT HEAD =           0.0000         CONSTANT HEAD =           0.0000
               WELLS =           0.0000                 WELLS =           0.0000
     HEAD DEP BOUNDS =      297419.7812       HEAD DEP BOUNDS =        1453.6653

           TOTAL OUT =      297419.7812             TOTAL OUT =        1453.6653

            IN - OUT =          -1.3125              IN - OUT =       2.5391E-02

 PERCENT DISCREPANCY =          -0.00     PERCENT DISCREPANCY =           0.00






         TIME SUMMARY AT END OF TIME STEP   84 IN STRESS PERIOD    2
                    SECONDS     MINUTES      HOURS       DAYS        YEARS
                    -----------------------------------------------------------
   TIME STEP LENGTH  86400.      1440.0      24.000      1.0000     2.73785E-03
 STRESS PERIOD TIME 7.25760E+06 1.20960E+05  2016.0      84.000     0.22998    
         TOTAL TIME 7.34400E+06 1.22400E+05  2040.0      85.000     0.23272    
1
 
 SOLVING FOR HEAD 

 OUTPUT CONTROL FOR STRESS PERIOD    2   TIME STEP   85
    SAVE HEAD FOR ALL LAYERS
    SAVE DRAWDOWN FOR ALL LAYERS
    SAVE BUDGET
    PRINT HEAD FOR ALL LAYERS
    PRINT BUDGET
 UBDSV1 SAVING "         STORAGE" ON UNIT  53 AT TIME STEP 85, STRESS PERIOD   2
 UBDSV2 SAVING "   CONSTANT HEAD" ON UNIT  53 AT TIME STEP 85, STRESS PERIOD   2
 UBDSV1 SAVING "FLOW RIGHT FACE " ON UNIT  53 AT TIME STEP 85, STRESS PERIOD   2
 UBDSV1 SAVING "FLOW FRONT FACE " ON UNIT  53 AT TIME STEP 85, STRESS PERIOD   2
 UBDSV1 SAVING "FLOW LOWER FACE " ON UNIT  53 AT TIME STEP 85, STRESS PERIOD   2
1
              HEAD IN LAYER   1 AT END OF TIME STEP  85 IN STRESS PERIOD    2
  ---------------------------------------------------------------------------

            1           2           3           4           5           6           7           8           9          10
 ........................................................................................................................
   1   10.000       9.906       9.761       9.499       9.033       8.251       7.025       5.251       2.889      2.6153E-03
   2   10.000       9.906       9.761       9.499       9.033       8.251       7.025       5.251       2.889      2.6153E-03
   3   10.000       9.906       9.761       9.499       9.033       8.251       7.025       5.251       2.889      2.6153E-03
   4   10.000       9.906       9.761       9.499       9.033       8.251       7.025       5.251       2.889      2.6153E-03
   5   10.000       9.906       9.761       9.499       9.033       8.251       7.025       5.251       2.889      2.6153E-03
   6   10.000       9.906       9.761       9.499       9.033       8.251       7.025       5.251       2.889      2.6153E-03
   7   10.000       9.906       9.761       9.499       9.033       8.251       7.025       5.251       2.889      2.6153E-03
   8   10.000       9.906       9.761       9.499       9.033       8.251       7.025       5.251       2.889      2.6153E-03
   9   10.000       9.906       9.761       9.499       9.033       8.251       7.025       5.251       2.889      2.6153E-03
  10   10.000       9.906       9.761       9.499       9.033       8.251       7.025       5.251       2.889      2.6153E-03
1
              HEAD IN LAYER   2 AT END OF TIME STEP  85 IN STRESS PERIOD    2
  ---------------------------------------------------------------------------

            1           2           3           4           5           6           7           8           9          10
 ........................................................................................................................
   1   10.000       9.903       9.754       9.488       9.017       8.228       6.999       5.225       2.870      6.0174E-03
   2   10.000       9.903       9.754       9.488       9.017       8.228       6.999       5.225       2.870      6.0174E-03
   3   10.000       9.903       9.754       9.488       9.017       8.228       6.999       5.225       2.870      6.0174E-03
   4   10.000       9.903       9.754       9.488       9.017       8.228       6.999       5.225       2.870      6.0174E-03
   5   10.000       9.903       9.754       9.488       9.017       8.228       6.999       5.225       2.870      6.0174E-03
   6   10.000       9.903       9.754       9.488       9.017       8.228       6.999       5.225       2.870      6.0174E-03
   7   10.000       9.903       9.754       9.488       9.017       8.228       6.999       5.225       2.870      6.0174E-03
   8   10.000       9.903       9.754       9.488       9.017       8.228       6.999       5.225       2.870      6.0174E-03
   9   10.000       9.903       9.754       9.488       9.017       8.228       6.999       5.225       2.870      6.0174E-03
  10   10.000       9.903       9.754       9.488       9.017       8.228       6.999       5.225       2.870      6.0174E-03
1
              HEAD IN LAYER   3 AT END OF TIME STEP  85 IN STRESS PERIOD    2
  ---------------------------------------------------------------------------

            1           2           3           4           5           6           7           8           9          10
 ........................................................................................................................
   1   10.000       9.901       9.749       9.480       9.004       8.210       6.977       5.201       2.850      6.7168E-03
   2   10.000       9.901       9.749       9.480       9.004       8.210       6.977       5.201       2.850      6.7168E-03
   3   10.000       9.901       9.749       9.480       9.004       8.210       6.977       5.201       2.850      6.7168E-03
   4   10.000       9.901       9.749       9.480       9.004       8.210       6.977       5.201       2.850      6.7168E-03
   5   10.000       9.901       9.749       9.480       9.004       8.210       6.977       5.201       2.850      6.7168E-03
   6   10.000       9.901       9.749       9.480       9.004       8.210       6.977       5.201       2.850      6.7168E-03
   7   10.000       9.901       9.749       9.480       9.004       8.210       6.977       5.201       2.850      6.7168E-03
   8   10.000       9.901       9.749       9.480       9.004       8.210       6.977       5.201       2.850      6.7168E-03
   9   10.000       9.901       9.749       9.480       9.004       8.210       6.977       5.201       2.850      6.7168E-03
  10   10.000       9.901       9.749       9.480       9.004       8.210       6.977       5.201       2.850      6.7168E-03
1
              HEAD IN LAYER   4 AT END OF TIME STEP  85 IN STRESS PERIOD    2
  ---------------------------------------------------------------------------

            1           2           3           4           5           6           7           8           9          10
 ........................................................................................................................
   1   10.000       9.899       9.746       9.474       8.995       8.198       6.962       5.186       2.836      6.7797E-03
   2   10.000       9.899       9.746       9.474       8.995       8.198       6.962       5.186       2.836      6.7797E-03
   3   10.000       9.899       9.746       9.474       8.995       8.198       6.962       5.186       2.836      6.7797E-03
   4   10.000       9.899       9.746       9.474       8.995       8.198       6.962       5.186       2.836      6.7797E-03
   5   10.000       9.899       9.746       9.474       8.995       8.198       6.962       5.186       2.836      6.7797E-03
   6   10.000       9.899       9.746       9.474       8.995       8.198       6.962       5.186       2.836      6.7797E-03
   7   10.000       9.899       9.746       9.474       8.995       8.198       6.962       5.186       2.836      6.7797E-03
   8   10.000       9.899       9.746       9.474       8.995       8.198       6.962       5.186       2.836      6.7797E-03
   9   10.000       9.899       9.746       9.474       8.995       8.198       6.962       5.186       2.836      6.7797E-03
  10   10.000       9.899       9.746       9.474       8.995       8.198       6.962       5.186       2.836      6.7797E-03
1
              HEAD IN LAYER   5 AT END OF TIME STEP  85 IN STRESS PERIOD    2
  ---------------------------------------------------------------------------

            1           2           3           4           5           6           7           8           9          10
 ........................................................................................................................
   1   10.000       9.899       9.745       9.471       8.991       8.192       6.955       5.178       2.830      6.7756E-03
   2   10.000       9.899       9.745       9.471       8.991       8.192       6.955       5.178       2.830      6.7756E-03
   3   10.000       9.899       9.745       9.471       8.991       8.192       6.955       5.178       2.830      6.7756E-03
   4   10.000       9.899       9.745       9.471       8.991       8.192       6.955       5.178       2.830      6.7756E-03
   5   10.000       9.899       9.745       9.471       8.991       8.192       6.955       5.178       2.830      6.7756E-03
   6   10.000       9.899       9.745       9.471       8.991       8.192       6.955       5.178       2.830      6.7756E-03
   7   10.000       9.899       9.745       9.471       8.991       8.192       6.955       5.178       2.830      6.7756E-03
   8   10.000       9.899       9.745       9.471       8.991       8.192       6.955       5.178       2.830      6.7756E-03
   9   10.000       9.899       9.745       9.471       8.991       8.192       6.955       5.178       2.830      6.7756E-03
  10   10.000       9.899       9.745       9.471       8.991       8.192       6.955       5.178       2.830      6.7756E-03

 HEAD WILL BE SAVED ON UNIT   51 AT END OF TIME STEP   85, STRESS PERIOD    2

 DRAWDOWN WILL BE SAVED ON UNIT   52 AT END OF TIME STEP   85, STRESS PERIOD    2
1
  VOLUMETRIC BUDGET FOR ENTIRE MODEL AT END OF TIME STEP   85, STRESS PERIOD   2
  ------------------------------------------------------------------------------

     CUMULATIVE VOLUMES      L**3       RATES FOR THIS TIME STEP      L**3/T
     ------------------                 ------------------------

           IN:                                      IN:
           ---                                      ---
             STORAGE =      297578.8438               STORAGE =        1386.4491
       CONSTANT HEAD =           0.0000         CONSTANT HEAD =           0.0000
               WELLS =           0.0000                 WELLS =           0.0000
     HEAD DEP BOUNDS =        1284.8949       HEAD DEP BOUNDS =          58.8389

            TOTAL IN =      298863.7500              TOTAL IN =        1445.2881

          OUT:                                     OUT:
          ----                                     ----
             STORAGE =           0.0000               STORAGE =           0.0000
       CONSTANT HEAD =           0.0000         CONSTANT HEAD =           0.0000
               WELLS =           0.0000                 WELLS =           0.0000
     HEAD DEP BOUNDS =      298865.0312       HEAD DEP BOUNDS =        1445.2383

           TOTAL OUT =      298865.0312             TOTAL OUT =        1445.2383

            IN - OUT =          -1.2812              IN - OUT =       4.9805E-02

 PERCENT DISCREPANCY =          -0.00     PERCENT DISCREPANCY =           0.00






         TIME SUMMARY AT END OF TIME STEP   85 IN STRESS PERIOD    2
                    SECONDS     MINUTES      HOURS       DAYS        YEARS
                    -----------------------------------------------------------
   TIME STEP LENGTH  86400.      1440.0      24.000      1.0000     2.73785E-03
 STRESS PERIOD TIME 7.34400E+06 1.22400E+05  2040.0      85.000     0.23272    
         TOTAL TIME 7.43040E+06 1.23840E+05  2064.0      86.000     0.23546    
1
 
 SOLVING FOR HEAD 

 OUTPUT CONTROL FOR STRESS PERIOD    2   TIME STEP   86
    SAVE HEAD FOR ALL LAYERS
    SAVE DRAWDOWN FOR ALL LAYERS
    SAVE BUDGET
    PRINT HEAD FOR ALL LAYERS
    PRINT BUDGET
 UBDSV1 SAVING "         STORAGE" ON UNIT  53 AT TIME STEP 86, STRESS PERIOD   2
 UBDSV2 SAVING "   CONSTANT HEAD" ON UNIT  53 AT TIME STEP 86, STRESS PERIOD   2
 UBDSV1 SAVING "FLOW RIGHT FACE " ON UNIT  53 AT TIME STEP 86, STRESS PERIOD   2
 UBDSV1 SAVING "FLOW FRONT FACE " ON UNIT  53 AT TIME STEP 86, STRESS PERIOD   2
 UBDSV1 SAVING "FLOW LOWER FACE " ON UNIT  53 AT TIME STEP 86, STRESS PERIOD   2
1
              HEAD IN LAYER   1 AT END OF TIME STEP  86 IN STRESS PERIOD    2
  ---------------------------------------------------------------------------

            1           2           3           4           5           6           7           8           9          10
 ........................................................................................................................
   1   10.000       9.903       9.754       9.488       9.016       8.227       6.998       5.225       2.872      2.5988E-03
   2   10.000       9.903       9.754       9.488       9.016       8.227       6.998       5.225       2.872      2.5988E-03
   3   10.000       9.903       9.754       9.488       9.016       8.227       6.998       5.225       2.872      2.5988E-03
   4   10.000       9.903       9.754       9.488       9.016       8.227       6.998       5.225       2.872      2.5988E-03
   5   10.000       9.903       9.754       9.488       9.016       8.227       6.998       5.225       2.872      2.5988E-03
   6   10.000       9.903       9.754       9.488       9.016       8.227       6.998       5.225       2.872      2.5988E-03
   7   10.000       9.903       9.754       9.488       9.016       8.227       6.998       5.225       2.872      2.5988E-03
   8   10.000       9.903       9.754       9.488       9.016       8.227       6.998       5.225       2.872      2.5988E-03
   9   10.000       9.903       9.754       9.488       9.016       8.227       6.998       5.225       2.872      2.5988E-03
  10   10.000       9.903       9.754       9.488       9.016       8.227       6.998       5.225       2.872      2.5988E-03
1
              HEAD IN LAYER   2 AT END OF TIME STEP  86 IN STRESS PERIOD    2
  ---------------------------------------------------------------------------

            1           2           3           4           5           6           7           8           9          10
 ........................................................................................................................
   1   10.000       9.900       9.747       9.477       8.999       8.205       6.973       5.200       2.853      5.9827E-03
   2   10.000       9.900       9.747       9.477       8.999       8.205       6.973       5.200       2.853      5.9827E-03
   3   10.000       9.900       9.747       9.477       8.999       8.205       6.973       5.200       2.853      5.9827E-03
   4   10.000       9.900       9.747       9.477       8.999       8.205       6.973       5.200       2.853      5.9827E-03
   5   10.000       9.900       9.747       9.477       8.999       8.205       6.973       5.200       2.853      5.9827E-03
   6   10.000       9.900       9.747       9.477       8.999       8.205       6.973       5.200       2.853      5.9827E-03
   7   10.000       9.900       9.747       9.477       8.999       8.205       6.973       5.200       2.853      5.9827E-03
   8   10.000       9.900       9.747       9.477       8.999       8.205       6.973       5.200       2.853      5.9827E-03
   9   10.000       9.900       9.747       9.477       8.999       8.205       6.973       5.200       2.853      5.9827E-03
  10   10.000       9.900       9.747       9.477       8.999       8.205       6.973       5.200       2.853      5.9827E-03
1
              HEAD IN LAYER   3 AT END OF TIME STEP  86 IN STRESS PERIOD    2
  ---------------------------------------------------------------------------

            1           2           3           4           5           6           7           8           9          10
 ........................................................................................................................
   1   10.000       9.898       9.743       9.468       8.986       8.187       6.951       5.177       2.833      6.6786E-03
   2   10.000       9.898       9.743       9.468       8.986       8.187       6.951       5.177       2.833      6.6786E-03
   3   10.000       9.898       9.743       9.468       8.986       8.187       6.951       5.177       2.833      6.6786E-03
   4   10.000       9.898       9.743       9.468       8.986       8.187       6.951       5.177       2.833      6.6786E-03
   5   10.000       9.898       9.743       9.468       8.986       8.187       6.951       5.177       2.833      6.6786E-03
   6   10.000       9.898       9.743       9.468       8.986       8.187       6.951       5.177       2.833      6.6786E-03
   7   10.000       9.898       9.743       9.468       8.986       8.187       6.951       5.177       2.833      6.6786E-03
   8   10.000       9.898       9.743       9.468       8.986       8.187       6.951       5.177       2.833      6.6786E-03
   9   10.000       9.898       9.743       9.468       8.986       8.187       6.951       5.177       2.833      6.6786E-03
  10   10.000       9.898       9.743       9.468       8.986       8.187       6.951       5.177       2.833      6.6786E-03
1
              HEAD IN LAYER   4 AT END OF TIME STEP  86 IN STRESS PERIOD    2
  ---------------------------------------------------------------------------

            1           2           3           4           5           6           7           8           9          10
 ........................................................................................................................
   1   10.000       9.896       9.739       9.462       8.978       8.175       6.936       5.161       2.820      6.7415E-03
   2   10.000       9.896       9.739       9.462       8.978       8.175       6.936       5.161       2.820      6.7415E-03
   3   10.000       9.896       9.739       9.462       8.978       8.175       6.936       5.161       2.820      6.7415E-03
   4   10.000       9.896       9.739       9.462       8.978       8.175       6.936       5.161       2.820      6.7415E-03
   5   10.000       9.896       9.739       9.462       8.978       8.175       6.936       5.161       2.820      6.7415E-03
   6   10.000       9.896       9.739       9.462       8.978       8.175       6.936       5.161       2.820      6.7415E-03
   7   10.000       9.896       9.739       9.462       8.978       8.175       6.936       5.161       2.820      6.7415E-03
   8   10.000       9.896       9.739       9.462       8.978       8.175       6.936       5.161       2.820      6.7415E-03
   9   10.000       9.896       9.739       9.462       8.978       8.175       6.936       5.161       2.820      6.7415E-03
  10   10.000       9.896       9.739       9.462       8.978       8.175       6.936       5.161       2.820      6.7415E-03
1
              HEAD IN LAYER   5 AT END OF TIME STEP  86 IN STRESS PERIOD    2
  ---------------------------------------------------------------------------

            1           2           3           4           5           6           7           8           9          10
 ........................................................................................................................
   1   10.000       9.896       9.738       9.460       8.973       8.169       6.929       5.153       2.814      6.7376E-03
   2   10.000       9.896       9.738       9.460       8.973       8.169       6.929       5.153       2.814      6.7376E-03
   3   10.000       9.896       9.738       9.460       8.973       8.169       6.929       5.153       2.814      6.7376E-03
   4   10.000       9.896       9.738       9.460       8.973       8.169       6.929       5.153       2.814      6.7376E-03
   5   10.000       9.896       9.738       9.460       8.973       8.169       6.929       5.153       2.814      6.7376E-03
   6   10.000       9.896       9.738       9.460       8.973       8.169       6.929       5.153       2.814      6.7376E-03
   7   10.000       9.896       9.738       9.460       8.973       8.169       6.929       5.153       2.814      6.7376E-03
   8   10.000       9.896       9.738       9.460       8.973       8.169       6.929       5.153       2.814      6.7376E-03
   9   10.000       9.896       9.738       9.460       8.973       8.169       6.929       5.153       2.814      6.7376E-03
  10   10.000       9.896       9.738       9.460       8.973       8.169       6.929       5.153       2.814      6.7376E-03

 HEAD WILL BE SAVED ON UNIT   51 AT END OF TIME STEP   86, STRESS PERIOD    2

 DRAWDOWN WILL BE SAVED ON UNIT   52 AT END OF TIME STEP   86, STRESS PERIOD    2
1
  VOLUMETRIC BUDGET FOR ENTIRE MODEL AT END OF TIME STEP   86, STRESS PERIOD   2
  ------------------------------------------------------------------------------

     CUMULATIVE VOLUMES      L**3       RATES FOR THIS TIME STEP      L**3/T
     ------------------                 ------------------------

           IN:                                      IN:
           ---                                      ---
             STORAGE =      298955.1562               STORAGE =        1376.3243
       CONSTANT HEAD =           0.0000         CONSTANT HEAD =           0.0000
               WELLS =           0.0000                 WELLS =           0.0000
     HEAD DEP BOUNDS =        1345.5845       HEAD DEP BOUNDS =          60.6896

            TOTAL IN =      300300.7500              TOTAL IN =        1437.0139

          OUT:                                     OUT:
          ----                                     ----
             STORAGE =           0.0000               STORAGE =           0.0000
       CONSTANT HEAD =           0.0000         CONSTANT HEAD =           0.0000
               WELLS =           0.0000                 WELLS =           0.0000
     HEAD DEP BOUNDS =      300302.0000       HEAD DEP BOUNDS =        1436.9606

           TOTAL OUT =      300302.0000             TOTAL OUT =        1436.9606

            IN - OUT =          -1.2500              IN - OUT =       5.3345E-02

 PERCENT DISCREPANCY =          -0.00     PERCENT DISCREPANCY =           0.00






         TIME SUMMARY AT END OF TIME STEP   86 IN STRESS PERIOD    2
                    SECONDS     MINUTES      HOURS       DAYS        YEARS
                    -----------------------------------------------------------
   TIME STEP LENGTH  86400.      1440.0      24.000      1.0000     2.73785E-03
 STRESS PERIOD TIME 7.43040E+06 1.23840E+05  2064.0      86.000     0.23546    
         TOTAL TIME 7.51680E+06 1.25280E+05  2088.0      87.000     0.23819    
1
 
 SOLVING FOR HEAD 

 OUTPUT CONTROL FOR STRESS PERIOD    2   TIME STEP   87
    SAVE HEAD FOR ALL LAYERS
    SAVE DRAWDOWN FOR ALL LAYERS
    SAVE BUDGET
    PRINT HEAD FOR ALL LAYERS
    PRINT BUDGET
 UBDSV1 SAVING "         STORAGE" ON UNIT  53 AT TIME STEP 87, STRESS PERIOD   2
 UBDSV2 SAVING "   CONSTANT HEAD" ON UNIT  53 AT TIME STEP 87, STRESS PERIOD   2
 UBDSV1 SAVING "FLOW RIGHT FACE " ON UNIT  53 AT TIME STEP 87, STRESS PERIOD   2
 UBDSV1 SAVING "FLOW FRONT FACE " ON UNIT  53 AT TIME STEP 87, STRESS PERIOD   2
 UBDSV1 SAVING "FLOW LOWER FACE " ON UNIT  53 AT TIME STEP 87, STRESS PERIOD   2
1
              HEAD IN LAYER   1 AT END OF TIME STEP  87 IN STRESS PERIOD    2
  ---------------------------------------------------------------------------

            1           2           3           4           5           6           7           8           9          10
 ........................................................................................................................
   1   10.000       9.900       9.747       9.476       8.999       8.204       6.972       5.200       2.856      2.5827E-03
   2   10.000       9.900       9.747       9.476       8.999       8.204       6.972       5.200       2.856      2.5827E-03
   3   10.000       9.900       9.747       9.476       8.999       8.204       6.972       5.200       2.856      2.5827E-03
   4   10.000       9.900       9.747       9.476       8.999       8.204       6.972       5.200       2.856      2.5827E-03
   5   10.000       9.900       9.747       9.476       8.999       8.204       6.972       5.200       2.856      2.5827E-03
   6   10.000       9.900       9.747       9.476       8.999       8.204       6.972       5.200       2.856      2.5827E-03
   7   10.000       9.900       9.747       9.476       8.999       8.204       6.972       5.200       2.856      2.5827E-03
   8   10.000       9.900       9.747       9.476       8.999       8.204       6.972       5.200       2.856      2.5827E-03
   9   10.000       9.900       9.747       9.476       8.999       8.204       6.972       5.200       2.856      2.5827E-03
  10   10.000       9.900       9.747       9.476       8.999       8.204       6.972       5.200       2.856      2.5827E-03
1
              HEAD IN LAYER   2 AT END OF TIME STEP  87 IN STRESS PERIOD    2
  ---------------------------------------------------------------------------

            1           2           3           4           5           6           7           8           9          10
 ........................................................................................................................
   1   10.000       9.897       9.741       9.465       8.982       8.182       6.946       5.175       2.837      5.9485E-03
   2   10.000       9.897       9.741       9.465       8.982       8.182       6.946       5.175       2.837      5.9485E-03
   3   10.000       9.897       9.741       9.465       8.982       8.182       6.946       5.175       2.837      5.9485E-03
   4   10.000       9.897       9.741       9.465       8.982       8.182       6.946       5.175       2.837      5.9485E-03
   5   10.000       9.897       9.741       9.465       8.982       8.182       6.946       5.175       2.837      5.9485E-03
   6   10.000       9.897       9.741       9.465       8.982       8.182       6.946       5.175       2.837      5.9485E-03
   7   10.000       9.897       9.741       9.465       8.982       8.182       6.946       5.175       2.837      5.9485E-03
   8   10.000       9.897       9.741       9.465       8.982       8.182       6.946       5.175       2.837      5.9485E-03
   9   10.000       9.897       9.741       9.465       8.982       8.182       6.946       5.175       2.837      5.9485E-03
  10   10.000       9.897       9.741       9.465       8.982       8.182       6.946       5.175       2.837      5.9485E-03
1
              HEAD IN LAYER   3 AT END OF TIME STEP  87 IN STRESS PERIOD    2
  ---------------------------------------------------------------------------

            1           2           3           4           5           6           7           8           9          10
 ........................................................................................................................
   1   10.000       9.895       9.736       9.456       8.969       8.164       6.924       5.152       2.817      6.6411E-03
   2   10.000       9.895       9.736       9.456       8.969       8.164       6.924       5.152       2.817      6.6411E-03
   3   10.000       9.895       9.736       9.456       8.969       8.164       6.924       5.152       2.817      6.6411E-03
   4   10.000       9.895       9.736       9.456       8.969       8.164       6.924       5.152       2.817      6.6411E-03
   5   10.000       9.895       9.736       9.456       8.969       8.164       6.924       5.152       2.817      6.6411E-03
   6   10.000       9.895       9.736       9.456       8.969       8.164       6.924       5.152       2.817      6.6411E-03
   7   10.000       9.895       9.736       9.456       8.969       8.164       6.924       5.152       2.817      6.6411E-03
   8   10.000       9.895       9.736       9.456       8.969       8.164       6.924       5.152       2.817      6.6411E-03
   9   10.000       9.895       9.736       9.456       8.969       8.164       6.924       5.152       2.817      6.6411E-03
  10   10.000       9.895       9.736       9.456       8.969       8.164       6.924       5.152       2.817      6.6411E-03
1
              HEAD IN LAYER   4 AT END OF TIME STEP  87 IN STRESS PERIOD    2
  ---------------------------------------------------------------------------

            1           2           3           4           5           6           7           8           9          10
 ........................................................................................................................
   1   10.000       9.893       9.732       9.451       8.960       8.153       6.910       5.137       2.805      6.7039E-03
   2   10.000       9.893       9.732       9.451       8.960       8.153       6.910       5.137       2.805      6.7039E-03
   3   10.000       9.893       9.732       9.451       8.960       8.153       6.910       5.137       2.805      6.7039E-03
   4   10.000       9.893       9.732       9.451       8.960       8.153       6.910       5.137       2.805      6.7039E-03
   5   10.000       9.893       9.732       9.451       8.960       8.153       6.910       5.137       2.805      6.7039E-03
   6   10.000       9.893       9.732       9.451       8.960       8.153       6.910       5.137       2.805      6.7039E-03
   7   10.000       9.893       9.732       9.451       8.960       8.153       6.910       5.137       2.805      6.7039E-03
   8   10.000       9.893       9.732       9.451       8.960       8.153       6.910       5.137       2.805      6.7039E-03
   9   10.000       9.893       9.732       9.451       8.960       8.153       6.910       5.137       2.805      6.7039E-03
  10   10.000       9.893       9.732       9.451       8.960       8.153       6.910       5.137       2.805      6.7039E-03
1
              HEAD IN LAYER   5 AT END OF TIME STEP  87 IN STRESS PERIOD    2
  ---------------------------------------------------------------------------

            1           2           3           4           5           6           7           8           9          10
 ........................................................................................................................
   1   10.000       9.893       9.731       9.448       8.956       8.147       6.903       5.129       2.798      6.7002E-03
   2   10.000       9.893       9.731       9.448       8.956       8.147       6.903       5.129       2.798      6.7002E-03
   3   10.000       9.893       9.731       9.448       8.956       8.147       6.903       5.129       2.798      6.7002E-03
   4   10.000       9.893       9.731       9.448       8.956       8.147       6.903       5.129       2.798      6.7002E-03
   5   10.000       9.893       9.731       9.448       8.956       8.147       6.903       5.129       2.798      6.7002E-03
   6   10.000       9.893       9.731       9.448       8.956       8.147       6.903       5.129       2.798      6.7002E-03
   7   10.000       9.893       9.731       9.448       8.956       8.147       6.903       5.129       2.798      6.7002E-03
   8   10.000       9.893       9.731       9.448       8.956       8.147       6.903       5.129       2.798      6.7002E-03
   9   10.000       9.893       9.731       9.448       8.956       8.147       6.903       5.129       2.798      6.7002E-03
  10   10.000       9.893       9.731       9.448       8.956       8.147       6.903       5.129       2.798      6.7002E-03

 HEAD WILL BE SAVED ON UNIT   51 AT END OF TIME STEP   87, STRESS PERIOD    2

 DRAWDOWN WILL BE SAVED ON UNIT   52 AT END OF TIME STEP   87, STRESS PERIOD    2
1
  VOLUMETRIC BUDGET FOR ENTIRE MODEL AT END OF TIME STEP   87, STRESS PERIOD   2
  ------------------------------------------------------------------------------

     CUMULATIVE VOLUMES      L**3       RATES FOR THIS TIME STEP      L**3/T
     ------------------                 ------------------------

           IN:                                      IN:
           ---                                      ---
             STORAGE =      300321.5000               STORAGE =        1366.3301
       CONSTANT HEAD =           0.0000         CONSTANT HEAD =           0.0000
               WELLS =           0.0000                 WELLS =           0.0000
     HEAD DEP BOUNDS =        1408.1454       HEAD DEP BOUNDS =          62.5609

            TOTAL IN =      301729.6562              TOTAL IN =        1428.8910

          OUT:                                     OUT:
          ----                                     ----
             STORAGE =           0.0000               STORAGE =           0.0000
       CONSTANT HEAD =           0.0000         CONSTANT HEAD =           0.0000
               WELLS =           0.0000                 WELLS =           0.0000
     HEAD DEP BOUNDS =      301730.8125       HEAD DEP BOUNDS =        1428.8191

           TOTAL OUT =      301730.8125             TOTAL OUT =        1428.8191

            IN - OUT =          -1.1562              IN - OUT =       7.1899E-02

 PERCENT DISCREPANCY =          -0.00     PERCENT DISCREPANCY =           0.01






         TIME SUMMARY AT END OF TIME STEP   87 IN STRESS PERIOD    2
                    SECONDS     MINUTES      HOURS       DAYS        YEARS
                    -----------------------------------------------------------
   TIME STEP LENGTH  86400.      1440.0      24.000      1.0000     2.73785E-03
 STRESS PERIOD TIME 7.51680E+06 1.25280E+05  2088.0      87.000     0.23819    
         TOTAL TIME 7.60320E+06 1.26720E+05  2112.0      88.000     0.24093    
1
 
 SOLVING FOR HEAD 

 OUTPUT CONTROL FOR STRESS PERIOD    2   TIME STEP   88
    SAVE HEAD FOR ALL LAYERS
    SAVE DRAWDOWN FOR ALL LAYERS
    SAVE BUDGET
    PRINT HEAD FOR ALL LAYERS
    PRINT BUDGET
 UBDSV1 SAVING "         STORAGE" ON UNIT  53 AT TIME STEP 88, STRESS PERIOD   2
 UBDSV2 SAVING "   CONSTANT HEAD" ON UNIT  53 AT TIME STEP 88, STRESS PERIOD   2
 UBDSV1 SAVING "FLOW RIGHT FACE " ON UNIT  53 AT TIME STEP 88, STRESS PERIOD   2
 UBDSV1 SAVING "FLOW FRONT FACE " ON UNIT  53 AT TIME STEP 88, STRESS PERIOD   2
 UBDSV1 SAVING "FLOW LOWER FACE " ON UNIT  53 AT TIME STEP 88, STRESS PERIOD   2
1
              HEAD IN LAYER   1 AT END OF TIME STEP  88 IN STRESS PERIOD    2
  ---------------------------------------------------------------------------

            1           2           3           4           5           6           7           8           9          10
 ........................................................................................................................
   1   10.000       9.897       9.740       9.464       8.981       8.181       6.945       5.175       2.839      2.5669E-03
   2   10.000       9.897       9.740       9.464       8.981       8.181       6.945       5.175       2.839      2.5669E-03
   3   10.000       9.897       9.740       9.464       8.981       8.181       6.945       5.175       2.839      2.5669E-03
   4   10.000       9.897       9.740       9.464       8.981       8.181       6.945       5.175       2.839      2.5669E-03
   5   10.000       9.897       9.740       9.464       8.981       8.181       6.945       5.175       2.839      2.5669E-03
   6   10.000       9.897       9.740       9.464       8.981       8.181       6.945       5.175       2.839      2.5669E-03
   7   10.000       9.897       9.740       9.464       8.981       8.181       6.945       5.175       2.839      2.5669E-03
   8   10.000       9.897       9.740       9.464       8.981       8.181       6.945       5.175       2.839      2.5669E-03
   9   10.000       9.897       9.740       9.464       8.981       8.181       6.945       5.175       2.839      2.5669E-03
  10   10.000       9.897       9.740       9.464       8.981       8.181       6.945       5.175       2.839      2.5669E-03
1
              HEAD IN LAYER   2 AT END OF TIME STEP  88 IN STRESS PERIOD    2
  ---------------------------------------------------------------------------

            1           2           3           4           5           6           7           8           9          10
 ........................................................................................................................
   1   10.000       9.894       9.734       9.453       8.965       8.159       6.920       5.151       2.821      5.9149E-03
   2   10.000       9.894       9.734       9.453       8.965       8.159       6.920       5.151       2.821      5.9149E-03
   3   10.000       9.894       9.734       9.453       8.965       8.159       6.920       5.151       2.821      5.9149E-03
   4   10.000       9.894       9.734       9.453       8.965       8.159       6.920       5.151       2.821      5.9149E-03
   5   10.000       9.894       9.734       9.453       8.965       8.159       6.920       5.151       2.821      5.9149E-03
   6   10.000       9.894       9.734       9.453       8.965       8.159       6.920       5.151       2.821      5.9149E-03
   7   10.000       9.894       9.734       9.453       8.965       8.159       6.920       5.151       2.821      5.9149E-03
   8   10.000       9.894       9.734       9.453       8.965       8.159       6.920       5.151       2.821      5.9149E-03
   9   10.000       9.894       9.734       9.453       8.965       8.159       6.920       5.151       2.821      5.9149E-03
  10   10.000       9.894       9.734       9.453       8.965       8.159       6.920       5.151       2.821      5.9149E-03
1
              HEAD IN LAYER   3 AT END OF TIME STEP  88 IN STRESS PERIOD    2
  ---------------------------------------------------------------------------

            1           2           3           4           5           6           7           8           9          10
 ........................................................................................................................
   1   10.000       9.892       9.729       9.445       8.952       8.142       6.898       5.128       2.802      6.6042E-03
   2   10.000       9.892       9.729       9.445       8.952       8.142       6.898       5.128       2.802      6.6042E-03
   3   10.000       9.892       9.729       9.445       8.952       8.142       6.898       5.128       2.802      6.6042E-03
   4   10.000       9.892       9.729       9.445       8.952       8.142       6.898       5.128       2.802      6.6042E-03
   5   10.000       9.892       9.729       9.445       8.952       8.142       6.898       5.128       2.802      6.6042E-03
   6   10.000       9.892       9.729       9.445       8.952       8.142       6.898       5.128       2.802      6.6042E-03
   7   10.000       9.892       9.729       9.445       8.952       8.142       6.898       5.128       2.802      6.6042E-03
   8   10.000       9.892       9.729       9.445       8.952       8.142       6.898       5.128       2.802      6.6042E-03
   9   10.000       9.892       9.729       9.445       8.952       8.142       6.898       5.128       2.802      6.6042E-03
  10   10.000       9.892       9.729       9.445       8.952       8.142       6.898       5.128       2.802      6.6042E-03
1
              HEAD IN LAYER   4 AT END OF TIME STEP  88 IN STRESS PERIOD    2
  ---------------------------------------------------------------------------

            1           2           3           4           5           6           7           8           9          10
 ........................................................................................................................
   1   10.000       9.890       9.725       9.439       8.943       8.130       6.884       5.113       2.789      6.6670E-03
   2   10.000       9.890       9.725       9.439       8.943       8.130       6.884       5.113       2.789      6.6670E-03
   3   10.000       9.890       9.725       9.439       8.943       8.130       6.884       5.113       2.789      6.6670E-03
   4   10.000       9.890       9.725       9.439       8.943       8.130       6.884       5.113       2.789      6.6670E-03
   5   10.000       9.890       9.725       9.439       8.943       8.130       6.884       5.113       2.789      6.6670E-03
   6   10.000       9.890       9.725       9.439       8.943       8.130       6.884       5.113       2.789      6.6670E-03
   7   10.000       9.890       9.725       9.439       8.943       8.130       6.884       5.113       2.789      6.6670E-03
   8   10.000       9.890       9.725       9.439       8.943       8.130       6.884       5.113       2.789      6.6670E-03
   9   10.000       9.890       9.725       9.439       8.943       8.130       6.884       5.113       2.789      6.6670E-03
  10   10.000       9.890       9.725       9.439       8.943       8.130       6.884       5.113       2.789      6.6670E-03
1
              HEAD IN LAYER   5 AT END OF TIME STEP  88 IN STRESS PERIOD    2
  ---------------------------------------------------------------------------

            1           2           3           4           5           6           7           8           9          10
 ........................................................................................................................
   1   10.000       9.889       9.724       9.436       8.939       8.124       6.877       5.105       2.783      6.6634E-03
   2   10.000       9.889       9.724       9.436       8.939       8.124       6.877       5.105       2.783      6.6634E-03
   3   10.000       9.889       9.724       9.436       8.939       8.124       6.877       5.105       2.783      6.6634E-03
   4   10.000       9.889       9.724       9.436       8.939       8.124       6.877       5.105       2.783      6.6634E-03
   5   10.000       9.889       9.724       9.436       8.939       8.124       6.877       5.105       2.783      6.6634E-03
   6   10.000       9.889       9.724       9.436       8.939       8.124       6.877       5.105       2.783      6.6634E-03
   7   10.000       9.889       9.724       9.436       8.939       8.124       6.877       5.105       2.783      6.6634E-03
   8   10.000       9.889       9.724       9.436       8.939       8.124       6.877       5.105       2.783      6.6634E-03
   9   10.000       9.889       9.724       9.436       8.939       8.124       6.877       5.105       2.783      6.6634E-03
  10   10.000       9.889       9.724       9.436       8.939       8.124       6.877       5.105       2.783      6.6634E-03

 HEAD WILL BE SAVED ON UNIT   51 AT END OF TIME STEP   88, STRESS PERIOD    2

 DRAWDOWN WILL BE SAVED ON UNIT   52 AT END OF TIME STEP   88, STRESS PERIOD    2
1
  VOLUMETRIC BUDGET FOR ENTIRE MODEL AT END OF TIME STEP   88, STRESS PERIOD   2
  ------------------------------------------------------------------------------

     CUMULATIVE VOLUMES      L**3       RATES FOR THIS TIME STEP      L**3/T
     ------------------                 ------------------------

           IN:                                      IN:
           ---                                      ---
             STORAGE =      301677.9688               STORAGE =        1356.4724
       CONSTANT HEAD =           0.0000         CONSTANT HEAD =           0.0000
               WELLS =           0.0000                 WELLS =           0.0000
     HEAD DEP BOUNDS =        1472.5977       HEAD DEP BOUNDS =          64.4523

            TOTAL IN =      303150.5625              TOTAL IN =        1420.9247

          OUT:                                     OUT:
          ----                                     ----
             STORAGE =           0.0000               STORAGE =           0.0000
       CONSTANT HEAD =           0.0000         CONSTANT HEAD =           0.0000
               WELLS =           0.0000                 WELLS =           0.0000
     HEAD DEP BOUNDS =      303151.6250       HEAD DEP BOUNDS =        1420.8193

           TOTAL OUT =      303151.6250             TOTAL OUT =        1420.8193

            IN - OUT =          -1.0625              IN - OUT =           0.1053

 PERCENT DISCREPANCY =          -0.00     PERCENT DISCREPANCY =           0.01






         TIME SUMMARY AT END OF TIME STEP   88 IN STRESS PERIOD    2
                    SECONDS     MINUTES      HOURS       DAYS        YEARS
                    -----------------------------------------------------------
   TIME STEP LENGTH  86400.      1440.0      24.000      1.0000     2.73785E-03
 STRESS PERIOD TIME 7.60320E+06 1.26720E+05  2112.0      88.000     0.24093    
         TOTAL TIME 7.68960E+06 1.28160E+05  2136.0      89.000     0.24367    
1
 
 SOLVING FOR HEAD 

 OUTPUT CONTROL FOR STRESS PERIOD    2   TIME STEP   89
    SAVE HEAD FOR ALL LAYERS
    SAVE DRAWDOWN FOR ALL LAYERS
    SAVE BUDGET
    PRINT HEAD FOR ALL LAYERS
    PRINT BUDGET
 UBDSV1 SAVING "         STORAGE" ON UNIT  53 AT TIME STEP 89, STRESS PERIOD   2
 UBDSV2 SAVING "   CONSTANT HEAD" ON UNIT  53 AT TIME STEP 89, STRESS PERIOD   2
 UBDSV1 SAVING "FLOW RIGHT FACE " ON UNIT  53 AT TIME STEP 89, STRESS PERIOD   2
 UBDSV1 SAVING "FLOW FRONT FACE " ON UNIT  53 AT TIME STEP 89, STRESS PERIOD   2
 UBDSV1 SAVING "FLOW LOWER FACE " ON UNIT  53 AT TIME STEP 89, STRESS PERIOD   2
1
              HEAD IN LAYER   1 AT END OF TIME STEP  89 IN STRESS PERIOD    2
  ---------------------------------------------------------------------------

            1           2           3           4           5           6           7           8           9          10
 ........................................................................................................................
   1   10.000       9.894       9.733       9.453       8.964       8.158       6.919       5.150       2.823      2.5513E-03
   2   10.000       9.894       9.733       9.453       8.964       8.158       6.919       5.150       2.823      2.5513E-03
   3   10.000       9.894       9.733       9.453       8.964       8.158       6.919       5.150       2.823      2.5513E-03
   4   10.000       9.894       9.733       9.453       8.964       8.158       6.919       5.150       2.823      2.5513E-03
   5   10.000       9.894       9.733       9.453       8.964       8.158       6.919       5.150       2.823      2.5513E-03
   6   10.000       9.894       9.733       9.453       8.964       8.158       6.919       5.150       2.823      2.5513E-03
   7   10.000       9.894       9.733       9.453       8.964       8.158       6.919       5.150       2.823      2.5513E-03
   8   10.000       9.894       9.733       9.453       8.964       8.158       6.919       5.150       2.823      2.5513E-03
   9   10.000       9.894       9.733       9.453       8.964       8.158       6.919       5.150       2.823      2.5513E-03
  10   10.000       9.894       9.733       9.453       8.964       8.158       6.919       5.150       2.823      2.5513E-03
1
              HEAD IN LAYER   2 AT END OF TIME STEP  89 IN STRESS PERIOD    2
  ---------------------------------------------------------------------------

            1           2           3           4           5           6           7           8           9          10
 ........................................................................................................................
   1   10.000       9.891       9.727       9.441       8.947       8.137       6.894       5.126       2.805      5.8819E-03
   2   10.000       9.891       9.727       9.441       8.947       8.137       6.894       5.126       2.805      5.8819E-03
   3   10.000       9.891       9.727       9.441       8.947       8.137       6.894       5.126       2.805      5.8819E-03
   4   10.000       9.891       9.727       9.441       8.947       8.137       6.894       5.126       2.805      5.8819E-03
   5   10.000       9.891       9.727       9.441       8.947       8.137       6.894       5.126       2.805      5.8819E-03
   6   10.000       9.891       9.727       9.441       8.947       8.137       6.894       5.126       2.805      5.8819E-03
   7   10.000       9.891       9.727       9.441       8.947       8.137       6.894       5.126       2.805      5.8819E-03
   8   10.000       9.891       9.727       9.441       8.947       8.137       6.894       5.126       2.805      5.8819E-03
   9   10.000       9.891       9.727       9.441       8.947       8.137       6.894       5.126       2.805      5.8819E-03
  10   10.000       9.891       9.727       9.441       8.947       8.137       6.894       5.126       2.805      5.8819E-03
1
              HEAD IN LAYER   3 AT END OF TIME STEP  89 IN STRESS PERIOD    2
  ---------------------------------------------------------------------------

            1           2           3           4           5           6           7           8           9          10
 ........................................................................................................................
   1   10.000       9.888       9.722       9.433       8.934       8.119       6.873       5.104       2.786      6.5679E-03
   2   10.000       9.888       9.722       9.433       8.934       8.119       6.873       5.104       2.786      6.5679E-03
   3   10.000       9.888       9.722       9.433       8.934       8.119       6.873       5.104       2.786      6.5679E-03
   4   10.000       9.888       9.722       9.433       8.934       8.119       6.873       5.104       2.786      6.5679E-03
   5   10.000       9.888       9.722       9.433       8.934       8.119       6.873       5.104       2.786      6.5679E-03
   6   10.000       9.888       9.722       9.433       8.934       8.119       6.873       5.104       2.786      6.5679E-03
   7   10.000       9.888       9.722       9.433       8.934       8.119       6.873       5.104       2.786      6.5679E-03
   8   10.000       9.888       9.722       9.433       8.934       8.119       6.873       5.104       2.786      6.5679E-03
   9   10.000       9.888       9.722       9.433       8.934       8.119       6.873       5.104       2.786      6.5679E-03
  10   10.000       9.888       9.722       9.433       8.934       8.119       6.873       5.104       2.786      6.5679E-03
1
              HEAD IN LAYER   4 AT END OF TIME STEP  89 IN STRESS PERIOD    2
  ---------------------------------------------------------------------------

            1           2           3           4           5           6           7           8           9          10
 ........................................................................................................................
   1   10.000       9.887       9.718       9.427       8.926       8.107       6.859       5.089       2.774      6.6306E-03
   2   10.000       9.887       9.718       9.427       8.926       8.107       6.859       5.089       2.774      6.6306E-03
   3   10.000       9.887       9.718       9.427       8.926       8.107       6.859       5.089       2.774      6.6306E-03
   4   10.000       9.887       9.718       9.427       8.926       8.107       6.859       5.089       2.774      6.6306E-03
   5   10.000       9.887       9.718       9.427       8.926       8.107       6.859       5.089       2.774      6.6306E-03
   6   10.000       9.887       9.718       9.427       8.926       8.107       6.859       5.089       2.774      6.6306E-03
   7   10.000       9.887       9.718       9.427       8.926       8.107       6.859       5.089       2.774      6.6306E-03
   8   10.000       9.887       9.718       9.427       8.926       8.107       6.859       5.089       2.774      6.6306E-03
   9   10.000       9.887       9.718       9.427       8.926       8.107       6.859       5.089       2.774      6.6306E-03
  10   10.000       9.887       9.718       9.427       8.926       8.107       6.859       5.089       2.774      6.6306E-03
1
              HEAD IN LAYER   5 AT END OF TIME STEP  89 IN STRESS PERIOD    2
  ---------------------------------------------------------------------------

            1           2           3           4           5           6           7           8           9          10
 ........................................................................................................................
   1   10.000       9.886       9.717       9.424       8.921       8.101       6.851       5.081       2.768      6.6272E-03
   2   10.000       9.886       9.717       9.424       8.921       8.101       6.851       5.081       2.768      6.6272E-03
   3   10.000       9.886       9.717       9.424       8.921       8.101       6.851       5.081       2.768      6.6272E-03
   4   10.000       9.886       9.717       9.424       8.921       8.101       6.851       5.081       2.768      6.6272E-03
   5   10.000       9.886       9.717       9.424       8.921       8.101       6.851       5.081       2.768      6.6272E-03
   6   10.000       9.886       9.717       9.424       8.921       8.101       6.851       5.081       2.768      6.6272E-03
   7   10.000       9.886       9.717       9.424       8.921       8.101       6.851       5.081       2.768      6.6272E-03
   8   10.000       9.886       9.717       9.424       8.921       8.101       6.851       5.081       2.768      6.6272E-03
   9   10.000       9.886       9.717       9.424       8.921       8.101       6.851       5.081       2.768      6.6272E-03
  10   10.000       9.886       9.717       9.424       8.921       8.101       6.851       5.081       2.768      6.6272E-03

 HEAD WILL BE SAVED ON UNIT   51 AT END OF TIME STEP   89, STRESS PERIOD    2

 DRAWDOWN WILL BE SAVED ON UNIT   52 AT END OF TIME STEP   89, STRESS PERIOD    2
1
  VOLUMETRIC BUDGET FOR ENTIRE MODEL AT END OF TIME STEP   89, STRESS PERIOD   2
  ------------------------------------------------------------------------------

     CUMULATIVE VOLUMES      L**3       RATES FOR THIS TIME STEP      L**3/T
     ------------------                 ------------------------

           IN:                                      IN:
           ---                                      ---
             STORAGE =      303024.6250               STORAGE =        1346.6646
       CONSTANT HEAD =           0.0000         CONSTANT HEAD =           0.0000
               WELLS =           0.0000                 WELLS =           0.0000
     HEAD DEP BOUNDS =        1538.8929       HEAD DEP BOUNDS =          66.2953

            TOTAL IN =      304563.5312              TOTAL IN =        1412.9598

          OUT:                                     OUT:
          ----                                     ----
             STORAGE =           0.0000               STORAGE =           0.0000
       CONSTANT HEAD =           0.0000         CONSTANT HEAD =           0.0000
               WELLS =           0.0000                 WELLS =           0.0000
     HEAD DEP BOUNDS =      304564.5625       HEAD DEP BOUNDS =        1412.9484

           TOTAL OUT =      304564.5625             TOTAL OUT =        1412.9484

            IN - OUT =          -1.0312              IN - OUT =       1.1475E-02

 PERCENT DISCREPANCY =          -0.00     PERCENT DISCREPANCY =           0.00






         TIME SUMMARY AT END OF TIME STEP   89 IN STRESS PERIOD    2
                    SECONDS     MINUTES      HOURS       DAYS        YEARS
                    -----------------------------------------------------------
   TIME STEP LENGTH  86400.      1440.0      24.000      1.0000     2.73785E-03
 STRESS PERIOD TIME 7.68960E+06 1.28160E+05  2136.0      89.000     0.24367    
         TOTAL TIME 7.77600E+06 1.29600E+05  2160.0      90.000     0.24641    
1
 
 SOLVING FOR HEAD 

 OUTPUT CONTROL FOR STRESS PERIOD    2   TIME STEP   90
    SAVE HEAD FOR ALL LAYERS
    SAVE DRAWDOWN FOR ALL LAYERS
    SAVE BUDGET
    PRINT HEAD FOR ALL LAYERS
    PRINT BUDGET
 UBDSV1 SAVING "         STORAGE" ON UNIT  53 AT TIME STEP 90, STRESS PERIOD   2
 UBDSV2 SAVING "   CONSTANT HEAD" ON UNIT  53 AT TIME STEP 90, STRESS PERIOD   2
 UBDSV1 SAVING "FLOW RIGHT FACE " ON UNIT  53 AT TIME STEP 90, STRESS PERIOD   2
 UBDSV1 SAVING "FLOW FRONT FACE " ON UNIT  53 AT TIME STEP 90, STRESS PERIOD   2
 UBDSV1 SAVING "FLOW LOWER FACE " ON UNIT  53 AT TIME STEP 90, STRESS PERIOD   2
1
              HEAD IN LAYER   1 AT END OF TIME STEP  90 IN STRESS PERIOD    2
  ---------------------------------------------------------------------------

            1           2           3           4           5           6           7           8           9          10
 ........................................................................................................................
   1   10.000       9.890       9.726       9.441       8.946       8.136       6.893       5.126       2.808      2.5358E-03
   2   10.000       9.890       9.726       9.441       8.946       8.136       6.893       5.126       2.808      2.5358E-03
   3   10.000       9.890       9.726       9.441       8.946       8.136       6.893       5.126       2.808      2.5358E-03
   4   10.000       9.890       9.726       9.441       8.946       8.136       6.893       5.126       2.808      2.5358E-03
   5   10.000       9.890       9.726       9.441       8.946       8.136       6.893       5.126       2.808      2.5358E-03
   6   10.000       9.890       9.726       9.441       8.946       8.136       6.893       5.126       2.808      2.5358E-03
   7   10.000       9.890       9.726       9.441       8.946       8.136       6.893       5.126       2.808      2.5358E-03
   8   10.000       9.890       9.726       9.441       8.946       8.136       6.893       5.126       2.808      2.5358E-03
   9   10.000       9.890       9.726       9.441       8.946       8.136       6.893       5.126       2.808      2.5358E-03
  10   10.000       9.890       9.726       9.441       8.946       8.136       6.893       5.126       2.808      2.5358E-03
1
              HEAD IN LAYER   2 AT END OF TIME STEP  90 IN STRESS PERIOD    2
  ---------------------------------------------------------------------------

            1           2           3           4           5           6           7           8           9          10
 ........................................................................................................................
   1   10.000       9.887       9.720       9.430       8.930       8.114       6.869       5.103       2.790      5.8494E-03
   2   10.000       9.887       9.720       9.430       8.930       8.114       6.869       5.103       2.790      5.8494E-03
   3   10.000       9.887       9.720       9.430       8.930       8.114       6.869       5.103       2.790      5.8494E-03
   4   10.000       9.887       9.720       9.430       8.930       8.114       6.869       5.103       2.790      5.8494E-03
   5   10.000       9.887       9.720       9.430       8.930       8.114       6.869       5.103       2.790      5.8494E-03
   6   10.000       9.887       9.720       9.430       8.930       8.114       6.869       5.103       2.790      5.8494E-03
   7   10.000       9.887       9.720       9.430       8.930       8.114       6.869       5.103       2.790      5.8494E-03
   8   10.000       9.887       9.720       9.430       8.930       8.114       6.869       5.103       2.790      5.8494E-03
   9   10.000       9.887       9.720       9.430       8.930       8.114       6.869       5.103       2.790      5.8494E-03
  10   10.000       9.887       9.720       9.430       8.930       8.114       6.869       5.103       2.790      5.8494E-03
1
              HEAD IN LAYER   3 AT END OF TIME STEP  90 IN STRESS PERIOD    2
  ---------------------------------------------------------------------------

            1           2           3           4           5           6           7           8           9          10
 ........................................................................................................................
   1   10.000       9.885       9.715       9.421       8.917       8.096       6.847       5.080       2.771      6.5322E-03
   2   10.000       9.885       9.715       9.421       8.917       8.096       6.847       5.080       2.771      6.5322E-03
   3   10.000       9.885       9.715       9.421       8.917       8.096       6.847       5.080       2.771      6.5322E-03
   4   10.000       9.885       9.715       9.421       8.917       8.096       6.847       5.080       2.771      6.5322E-03
   5   10.000       9.885       9.715       9.421       8.917       8.096       6.847       5.080       2.771      6.5322E-03
   6   10.000       9.885       9.715       9.421       8.917       8.096       6.847       5.080       2.771      6.5322E-03
   7   10.000       9.885       9.715       9.421       8.917       8.096       6.847       5.080       2.771      6.5322E-03
   8   10.000       9.885       9.715       9.421       8.917       8.096       6.847       5.080       2.771      6.5322E-03
   9   10.000       9.885       9.715       9.421       8.917       8.096       6.847       5.080       2.771      6.5322E-03
  10   10.000       9.885       9.715       9.421       8.917       8.096       6.847       5.080       2.771      6.5322E-03
1
              HEAD IN LAYER   4 AT END OF TIME STEP  90 IN STRESS PERIOD    2
  ---------------------------------------------------------------------------

            1           2           3           4           5           6           7           8           9          10
 ........................................................................................................................
   1   10.000       9.884       9.711       9.415       8.908       8.085       6.833       5.065       2.759      6.5949E-03
   2   10.000       9.884       9.711       9.415       8.908       8.085       6.833       5.065       2.759      6.5949E-03
   3   10.000       9.884       9.711       9.415       8.908       8.085       6.833       5.065       2.759      6.5949E-03
   4   10.000       9.884       9.711       9.415       8.908       8.085       6.833       5.065       2.759      6.5949E-03
   5   10.000       9.884       9.711       9.415       8.908       8.085       6.833       5.065       2.759      6.5949E-03
   6   10.000       9.884       9.711       9.415       8.908       8.085       6.833       5.065       2.759      6.5949E-03
   7   10.000       9.884       9.711       9.415       8.908       8.085       6.833       5.065       2.759      6.5949E-03
   8   10.000       9.884       9.711       9.415       8.908       8.085       6.833       5.065       2.759      6.5949E-03
   9   10.000       9.884       9.711       9.415       8.908       8.085       6.833       5.065       2.759      6.5949E-03
  10   10.000       9.884       9.711       9.415       8.908       8.085       6.833       5.065       2.759      6.5949E-03
1
              HEAD IN LAYER   5 AT END OF TIME STEP  90 IN STRESS PERIOD    2
  ---------------------------------------------------------------------------

            1           2           3           4           5           6           7           8           9          10
 ........................................................................................................................
   1   10.000       9.883       9.710       9.412       8.904       8.079       6.826       5.058       2.753      6.5916E-03
   2   10.000       9.883       9.710       9.412       8.904       8.079       6.826       5.058       2.753      6.5916E-03
   3   10.000       9.883       9.710       9.412       8.904       8.079       6.826       5.058       2.753      6.5916E-03
   4   10.000       9.883       9.710       9.412       8.904       8.079       6.826       5.058       2.753      6.5916E-03
   5   10.000       9.883       9.710       9.412       8.904       8.079       6.826       5.058       2.753      6.5916E-03
   6   10.000       9.883       9.710       9.412       8.904       8.079       6.826       5.058       2.753      6.5916E-03
   7   10.000       9.883       9.710       9.412       8.904       8.079       6.826       5.058       2.753      6.5916E-03
   8   10.000       9.883       9.710       9.412       8.904       8.079       6.826       5.058       2.753      6.5916E-03
   9   10.000       9.883       9.710       9.412       8.904       8.079       6.826       5.058       2.753      6.5916E-03
  10   10.000       9.883       9.710       9.412       8.904       8.079       6.826       5.058       2.753      6.5916E-03

 HEAD WILL BE SAVED ON UNIT   51 AT END OF TIME STEP   90, STRESS PERIOD    2

 DRAWDOWN WILL BE SAVED ON UNIT   52 AT END OF TIME STEP   90, STRESS PERIOD    2
1
  VOLUMETRIC BUDGET FOR ENTIRE MODEL AT END OF TIME STEP   90, STRESS PERIOD   2
  ------------------------------------------------------------------------------

     CUMULATIVE VOLUMES      L**3       RATES FOR THIS TIME STEP      L**3/T
     ------------------                 ------------------------

           IN:                                      IN:
           ---                                      ---
             STORAGE =      304361.6562               STORAGE =        1337.0223
       CONSTANT HEAD =           0.0000         CONSTANT HEAD =           0.0000
               WELLS =           0.0000                 WELLS =           0.0000
     HEAD DEP BOUNDS =        1607.1182       HEAD DEP BOUNDS =          68.2252

            TOTAL IN =      305968.7812              TOTAL IN =        1405.2476

          OUT:                                     OUT:
          ----                                     ----
             STORAGE =           0.0000               STORAGE =           0.0000
       CONSTANT HEAD =           0.0000         CONSTANT HEAD =           0.0000
               WELLS =           0.0000                 WELLS =           0.0000
     HEAD DEP BOUNDS =      305969.7500       HEAD DEP BOUNDS =        1405.1948

           TOTAL OUT =      305969.7500             TOTAL OUT =        1405.1948

            IN - OUT =          -0.9688              IN - OUT =       5.2734E-02

 PERCENT DISCREPANCY =          -0.00     PERCENT DISCREPANCY =           0.00






         TIME SUMMARY AT END OF TIME STEP   90 IN STRESS PERIOD    2
                    SECONDS     MINUTES      HOURS       DAYS        YEARS
                    -----------------------------------------------------------
   TIME STEP LENGTH  86400.      1440.0      24.000      1.0000     2.73785E-03
 STRESS PERIOD TIME 7.77600E+06 1.29600E+05  2160.0      90.000     0.24641    
         TOTAL TIME 7.86240E+06 1.31040E+05  2184.0      91.000     0.24914    
1
 
 SOLVING FOR HEAD 

 OUTPUT CONTROL FOR STRESS PERIOD    2   TIME STEP   91
    SAVE HEAD FOR ALL LAYERS
    SAVE DRAWDOWN FOR ALL LAYERS
    SAVE BUDGET
    PRINT HEAD FOR ALL LAYERS
    PRINT BUDGET
 UBDSV1 SAVING "         STORAGE" ON UNIT  53 AT TIME STEP 91, STRESS PERIOD   2
 UBDSV2 SAVING "   CONSTANT HEAD" ON UNIT  53 AT TIME STEP 91, STRESS PERIOD   2
 UBDSV1 SAVING "FLOW RIGHT FACE " ON UNIT  53 AT TIME STEP 91, STRESS PERIOD   2
 UBDSV1 SAVING "FLOW FRONT FACE " ON UNIT  53 AT TIME STEP 91, STRESS PERIOD   2
 UBDSV1 SAVING "FLOW LOWER FACE " ON UNIT  53 AT TIME STEP 91, STRESS PERIOD   2
1
              HEAD IN LAYER   1 AT END OF TIME STEP  91 IN STRESS PERIOD    2
  ---------------------------------------------------------------------------

            1           2           3           4           5           6           7           8           9          10
 ........................................................................................................................
   1   10.000       9.887       9.719       9.429       8.929       8.113       6.868       5.102       2.792      2.5208E-03
   2   10.000       9.887       9.719       9.429       8.929       8.113       6.868       5.102       2.792      2.5208E-03
   3   10.000       9.887       9.719       9.429       8.929       8.113       6.868       5.102       2.792      2.5208E-03
   4   10.000       9.887       9.719       9.429       8.929       8.113       6.868       5.102       2.792      2.5208E-03
   5   10.000       9.887       9.719       9.429       8.929       8.113       6.868       5.102       2.792      2.5208E-03
   6   10.000       9.887       9.719       9.429       8.929       8.113       6.868       5.102       2.792      2.5208E-03
   7   10.000       9.887       9.719       9.429       8.929       8.113       6.868       5.102       2.792      2.5208E-03
   8   10.000       9.887       9.719       9.429       8.929       8.113       6.868       5.102       2.792      2.5208E-03
   9   10.000       9.887       9.719       9.429       8.929       8.113       6.868       5.102       2.792      2.5208E-03
  10   10.000       9.887       9.719       9.429       8.929       8.113       6.868       5.102       2.792      2.5208E-03
1
              HEAD IN LAYER   2 AT END OF TIME STEP  91 IN STRESS PERIOD    2
  ---------------------------------------------------------------------------

            1           2           3           4           5           6           7           8           9          10
 ........................................................................................................................
   1   10.000       9.884       9.713       9.418       8.913       8.092       6.843       5.079       2.775      5.8174E-03
   2   10.000       9.884       9.713       9.418       8.913       8.092       6.843       5.079       2.775      5.8174E-03
   3   10.000       9.884       9.713       9.418       8.913       8.092       6.843       5.079       2.775      5.8174E-03
   4   10.000       9.884       9.713       9.418       8.913       8.092       6.843       5.079       2.775      5.8174E-03
   5   10.000       9.884       9.713       9.418       8.913       8.092       6.843       5.079       2.775      5.8174E-03
   6   10.000       9.884       9.713       9.418       8.913       8.092       6.843       5.079       2.775      5.8174E-03
   7   10.000       9.884       9.713       9.418       8.913       8.092       6.843       5.079       2.775      5.8174E-03
   8   10.000       9.884       9.713       9.418       8.913       8.092       6.843       5.079       2.775      5.8174E-03
   9   10.000       9.884       9.713       9.418       8.913       8.092       6.843       5.079       2.775      5.8174E-03
  10   10.000       9.884       9.713       9.418       8.913       8.092       6.843       5.079       2.775      5.8174E-03
1
              HEAD IN LAYER   3 AT END OF TIME STEP  91 IN STRESS PERIOD    2
  ---------------------------------------------------------------------------

            1           2           3           4           5           6           7           8           9          10
 ........................................................................................................................
   1   10.000       9.882       9.708       9.409       8.900       8.074       6.822       5.057       2.756      6.4971E-03
   2   10.000       9.882       9.708       9.409       8.900       8.074       6.822       5.057       2.756      6.4971E-03
   3   10.000       9.882       9.708       9.409       8.900       8.074       6.822       5.057       2.756      6.4971E-03
   4   10.000       9.882       9.708       9.409       8.900       8.074       6.822       5.057       2.756      6.4971E-03
   5   10.000       9.882       9.708       9.409       8.900       8.074       6.822       5.057       2.756      6.4971E-03
   6   10.000       9.882       9.708       9.409       8.900       8.074       6.822       5.057       2.756      6.4971E-03
   7   10.000       9.882       9.708       9.409       8.900       8.074       6.822       5.057       2.756      6.4971E-03
   8   10.000       9.882       9.708       9.409       8.900       8.074       6.822       5.057       2.756      6.4971E-03
   9   10.000       9.882       9.708       9.409       8.900       8.074       6.822       5.057       2.756      6.4971E-03
  10   10.000       9.882       9.708       9.409       8.900       8.074       6.822       5.057       2.756      6.4971E-03
1
              HEAD IN LAYER   4 AT END OF TIME STEP  91 IN STRESS PERIOD    2
  ---------------------------------------------------------------------------

            1           2           3           4           5           6           7           8           9          10
 ........................................................................................................................
   1   10.000       9.880       9.704       9.403       8.891       8.063       6.808       5.042       2.744      6.5597E-03
   2   10.000       9.880       9.704       9.403       8.891       8.063       6.808       5.042       2.744      6.5597E-03
   3   10.000       9.880       9.704       9.403       8.891       8.063       6.808       5.042       2.744      6.5597E-03
   4   10.000       9.880       9.704       9.403       8.891       8.063       6.808       5.042       2.744      6.5597E-03
   5   10.000       9.880       9.704       9.403       8.891       8.063       6.808       5.042       2.744      6.5597E-03
   6   10.000       9.880       9.704       9.403       8.891       8.063       6.808       5.042       2.744      6.5597E-03
   7   10.000       9.880       9.704       9.403       8.891       8.063       6.808       5.042       2.744      6.5597E-03
   8   10.000       9.880       9.704       9.403       8.891       8.063       6.808       5.042       2.744      6.5597E-03
   9   10.000       9.880       9.704       9.403       8.891       8.063       6.808       5.042       2.744      6.5597E-03
  10   10.000       9.880       9.704       9.403       8.891       8.063       6.808       5.042       2.744      6.5597E-03
1
              HEAD IN LAYER   5 AT END OF TIME STEP  91 IN STRESS PERIOD    2
  ---------------------------------------------------------------------------

            1           2           3           4           5           6           7           8           9          10
 ........................................................................................................................
   1   10.000       9.880       9.703       9.401       8.887       8.057       6.801       5.035       2.738      6.5566E-03
   2   10.000       9.880       9.703       9.401       8.887       8.057       6.801       5.035       2.738      6.5566E-03
   3   10.000       9.880       9.703       9.401       8.887       8.057       6.801       5.035       2.738      6.5566E-03
   4   10.000       9.880       9.703       9.401       8.887       8.057       6.801       5.035       2.738      6.5566E-03
   5   10.000       9.880       9.703       9.401       8.887       8.057       6.801       5.035       2.738      6.5566E-03
   6   10.000       9.880       9.703       9.401       8.887       8.057       6.801       5.035       2.738      6.5566E-03
   7   10.000       9.880       9.703       9.401       8.887       8.057       6.801       5.035       2.738      6.5566E-03
   8   10.000       9.880       9.703       9.401       8.887       8.057       6.801       5.035       2.738      6.5566E-03
   9   10.000       9.880       9.703       9.401       8.887       8.057       6.801       5.035       2.738      6.5566E-03
  10   10.000       9.880       9.703       9.401       8.887       8.057       6.801       5.035       2.738      6.5566E-03

 HEAD WILL BE SAVED ON UNIT   51 AT END OF TIME STEP   91, STRESS PERIOD    2

 DRAWDOWN WILL BE SAVED ON UNIT   52 AT END OF TIME STEP   91, STRESS PERIOD    2
1
  VOLUMETRIC BUDGET FOR ENTIRE MODEL AT END OF TIME STEP   91, STRESS PERIOD   2
  ------------------------------------------------------------------------------

     CUMULATIVE VOLUMES      L**3       RATES FOR THIS TIME STEP      L**3/T
     ------------------                 ------------------------

           IN:                                      IN:
           ---                                      ---
             STORAGE =      305689.1250               STORAGE =        1327.4719
       CONSTANT HEAD =           0.0000         CONSTANT HEAD =           0.0000
               WELLS =           0.0000                 WELLS =           0.0000
     HEAD DEP BOUNDS =        1677.2920       HEAD DEP BOUNDS =          70.1738

            TOTAL IN =      307366.4062              TOTAL IN =        1397.6458

          OUT:                                     OUT:
          ----                                     ----
             STORAGE =           0.0000               STORAGE =           0.0000
       CONSTANT HEAD =           0.0000         CONSTANT HEAD =           0.0000
               WELLS =           0.0000                 WELLS =           0.0000
     HEAD DEP BOUNDS =      307367.3438       HEAD DEP BOUNDS =        1397.5809

           TOTAL OUT =      307367.3438             TOTAL OUT =        1397.5809

            IN - OUT =          -0.9375              IN - OUT =       6.4819E-02

 PERCENT DISCREPANCY =          -0.00     PERCENT DISCREPANCY =           0.00






         TIME SUMMARY AT END OF TIME STEP   91 IN STRESS PERIOD    2
                    SECONDS     MINUTES      HOURS       DAYS        YEARS
                    -----------------------------------------------------------
   TIME STEP LENGTH  86400.      1440.0      24.000      1.0000     2.73785E-03
 STRESS PERIOD TIME 7.86240E+06 1.31040E+05  2184.0      91.000     0.24914    
         TOTAL TIME 7.94880E+06 1.32480E+05  2208.0      92.000     0.25188    
1
 
 SOLVING FOR HEAD 

 OUTPUT CONTROL FOR STRESS PERIOD    2   TIME STEP   92
    SAVE HEAD FOR ALL LAYERS
    SAVE DRAWDOWN FOR ALL LAYERS
    SAVE BUDGET
    PRINT HEAD FOR ALL LAYERS
    PRINT BUDGET
 UBDSV1 SAVING "         STORAGE" ON UNIT  53 AT TIME STEP 92, STRESS PERIOD   2
 UBDSV2 SAVING "   CONSTANT HEAD" ON UNIT  53 AT TIME STEP 92, STRESS PERIOD   2
 UBDSV1 SAVING "FLOW RIGHT FACE " ON UNIT  53 AT TIME STEP 92, STRESS PERIOD   2
 UBDSV1 SAVING "FLOW FRONT FACE " ON UNIT  53 AT TIME STEP 92, STRESS PERIOD   2
 UBDSV1 SAVING "FLOW LOWER FACE " ON UNIT  53 AT TIME STEP 92, STRESS PERIOD   2
1
              HEAD IN LAYER   1 AT END OF TIME STEP  92 IN STRESS PERIOD    2
  ---------------------------------------------------------------------------

            1           2           3           4           5           6           7           8           9          10
 ........................................................................................................................
   1   10.000       9.884       9.712       9.417       8.912       8.091       6.842       5.079       2.777      2.5059E-03
   2   10.000       9.884       9.712       9.417       8.912       8.091       6.842       5.079       2.777      2.5059E-03
   3   10.000       9.884       9.712       9.417       8.912       8.091       6.842       5.079       2.777      2.5059E-03
   4   10.000       9.884       9.712       9.417       8.912       8.091       6.842       5.079       2.777      2.5059E-03
   5   10.000       9.884       9.712       9.417       8.912       8.091       6.842       5.079       2.777      2.5059E-03
   6   10.000       9.884       9.712       9.417       8.912       8.091       6.842       5.079       2.777      2.5059E-03
   7   10.000       9.884       9.712       9.417       8.912       8.091       6.842       5.079       2.777      2.5059E-03
   8   10.000       9.884       9.712       9.417       8.912       8.091       6.842       5.079       2.777      2.5059E-03
   9   10.000       9.884       9.712       9.417       8.912       8.091       6.842       5.079       2.777      2.5059E-03
  10   10.000       9.884       9.712       9.417       8.912       8.091       6.842       5.079       2.777      2.5059E-03
1
              HEAD IN LAYER   2 AT END OF TIME STEP  92 IN STRESS PERIOD    2
  ---------------------------------------------------------------------------

            1           2           3           4           5           6           7           8           9          10
 ........................................................................................................................
   1   10.000       9.881       9.706       9.406       8.895       8.069       6.818       5.056       2.760      5.7859E-03
   2   10.000       9.881       9.706       9.406       8.895       8.069       6.818       5.056       2.760      5.7859E-03
   3   10.000       9.881       9.706       9.406       8.895       8.069       6.818       5.056       2.760      5.7859E-03
   4   10.000       9.881       9.706       9.406       8.895       8.069       6.818       5.056       2.760      5.7859E-03
   5   10.000       9.881       9.706       9.406       8.895       8.069       6.818       5.056       2.760      5.7859E-03
   6   10.000       9.881       9.706       9.406       8.895       8.069       6.818       5.056       2.760      5.7859E-03
   7   10.000       9.881       9.706       9.406       8.895       8.069       6.818       5.056       2.760      5.7859E-03
   8   10.000       9.881       9.706       9.406       8.895       8.069       6.818       5.056       2.760      5.7859E-03
   9   10.000       9.881       9.706       9.406       8.895       8.069       6.818       5.056       2.760      5.7859E-03
  10   10.000       9.881       9.706       9.406       8.895       8.069       6.818       5.056       2.760      5.7859E-03
1
              HEAD IN LAYER   3 AT END OF TIME STEP  92 IN STRESS PERIOD    2
  ---------------------------------------------------------------------------

            1           2           3           4           5           6           7           8           9          10
 ........................................................................................................................
   1   10.000       9.879       9.700       9.397       8.882       8.052       6.797       5.034       2.742      6.4625E-03
   2   10.000       9.879       9.700       9.397       8.882       8.052       6.797       5.034       2.742      6.4625E-03
   3   10.000       9.879       9.700       9.397       8.882       8.052       6.797       5.034       2.742      6.4625E-03
   4   10.000       9.879       9.700       9.397       8.882       8.052       6.797       5.034       2.742      6.4625E-03
   5   10.000       9.879       9.700       9.397       8.882       8.052       6.797       5.034       2.742      6.4625E-03
   6   10.000       9.879       9.700       9.397       8.882       8.052       6.797       5.034       2.742      6.4625E-03
   7   10.000       9.879       9.700       9.397       8.882       8.052       6.797       5.034       2.742      6.4625E-03
   8   10.000       9.879       9.700       9.397       8.882       8.052       6.797       5.034       2.742      6.4625E-03
   9   10.000       9.879       9.700       9.397       8.882       8.052       6.797       5.034       2.742      6.4625E-03
  10   10.000       9.879       9.700       9.397       8.882       8.052       6.797       5.034       2.742      6.4625E-03
1
              HEAD IN LAYER   4 AT END OF TIME STEP  92 IN STRESS PERIOD    2
  ---------------------------------------------------------------------------

            1           2           3           4           5           6           7           8           9          10
 ........................................................................................................................
   1   10.000       9.877       9.697       9.392       8.874       8.040       6.783       5.020       2.730      6.5250E-03
   2   10.000       9.877       9.697       9.392       8.874       8.040       6.783       5.020       2.730      6.5250E-03
   3   10.000       9.877       9.697       9.392       8.874       8.040       6.783       5.020       2.730      6.5250E-03
   4   10.000       9.877       9.697       9.392       8.874       8.040       6.783       5.020       2.730      6.5250E-03
   5   10.000       9.877       9.697       9.392       8.874       8.040       6.783       5.020       2.730      6.5250E-03
   6   10.000       9.877       9.697       9.392       8.874       8.040       6.783       5.020       2.730      6.5250E-03
   7   10.000       9.877       9.697       9.392       8.874       8.040       6.783       5.020       2.730      6.5250E-03
   8   10.000       9.877       9.697       9.392       8.874       8.040       6.783       5.020       2.730      6.5250E-03
   9   10.000       9.877       9.697       9.392       8.874       8.040       6.783       5.020       2.730      6.5250E-03
  10   10.000       9.877       9.697       9.392       8.874       8.040       6.783       5.020       2.730      6.5250E-03
1
              HEAD IN LAYER   5 AT END OF TIME STEP  92 IN STRESS PERIOD    2
  ---------------------------------------------------------------------------

            1           2           3           4           5           6           7           8           9          10
 ........................................................................................................................
   1   10.000       9.876       9.695       9.389       8.870       8.035       6.777       5.012       2.724      6.5221E-03
   2   10.000       9.876       9.695       9.389       8.870       8.035       6.777       5.012       2.724      6.5221E-03
   3   10.000       9.876       9.695       9.389       8.870       8.035       6.777       5.012       2.724      6.5221E-03
   4   10.000       9.876       9.695       9.389       8.870       8.035       6.777       5.012       2.724      6.5221E-03
   5   10.000       9.876       9.695       9.389       8.870       8.035       6.777       5.012       2.724      6.5221E-03
   6   10.000       9.876       9.695       9.389       8.870       8.035       6.777       5.012       2.724      6.5221E-03
   7   10.000       9.876       9.695       9.389       8.870       8.035       6.777       5.012       2.724      6.5221E-03
   8   10.000       9.876       9.695       9.389       8.870       8.035       6.777       5.012       2.724      6.5221E-03
   9   10.000       9.876       9.695       9.389       8.870       8.035       6.777       5.012       2.724      6.5221E-03
  10   10.000       9.876       9.695       9.389       8.870       8.035       6.777       5.012       2.724      6.5221E-03

 HEAD WILL BE SAVED ON UNIT   51 AT END OF TIME STEP   92, STRESS PERIOD    2

 DRAWDOWN WILL BE SAVED ON UNIT   52 AT END OF TIME STEP   92, STRESS PERIOD    2
1
  VOLUMETRIC BUDGET FOR ENTIRE MODEL AT END OF TIME STEP   92, STRESS PERIOD   2
  ------------------------------------------------------------------------------

     CUMULATIVE VOLUMES      L**3       RATES FOR THIS TIME STEP      L**3/T
     ------------------                 ------------------------

           IN:                                      IN:
           ---                                      ---
             STORAGE =      307007.1250               STORAGE =        1318.0068
       CONSTANT HEAD =           0.0000         CONSTANT HEAD =           0.0000
               WELLS =           0.0000                 WELLS =           0.0000
     HEAD DEP BOUNDS =        1749.4319       HEAD DEP BOUNDS =          72.1399

            TOTAL IN =      308756.5625              TOTAL IN =        1390.1467

          OUT:                                     OUT:
          ----                                     ----
             STORAGE =           0.0000               STORAGE =           0.0000
       CONSTANT HEAD =           0.0000         CONSTANT HEAD =           0.0000
               WELLS =           0.0000                 WELLS =           0.0000
     HEAD DEP BOUNDS =      308757.4062       HEAD DEP BOUNDS =        1390.0771

           TOTAL OUT =      308757.4062             TOTAL OUT =        1390.0771

            IN - OUT =          -0.8438              IN - OUT =       6.9580E-02

 PERCENT DISCREPANCY =          -0.00     PERCENT DISCREPANCY =           0.01






         TIME SUMMARY AT END OF TIME STEP   92 IN STRESS PERIOD    2
                    SECONDS     MINUTES      HOURS       DAYS        YEARS
                    -----------------------------------------------------------
   TIME STEP LENGTH  86400.      1440.0      24.000      1.0000     2.73785E-03
 STRESS PERIOD TIME 7.94880E+06 1.32480E+05  2208.0      92.000     0.25188    
         TOTAL TIME 8.03520E+06 1.33920E+05  2232.0      93.000     0.25462    
1
 
 SOLVING FOR HEAD 

 OUTPUT CONTROL FOR STRESS PERIOD    2   TIME STEP   93
    SAVE HEAD FOR ALL LAYERS
    SAVE DRAWDOWN FOR ALL LAYERS
    SAVE BUDGET
    PRINT HEAD FOR ALL LAYERS
    PRINT BUDGET
 UBDSV1 SAVING "         STORAGE" ON UNIT  53 AT TIME STEP 93, STRESS PERIOD   2
 UBDSV2 SAVING "   CONSTANT HEAD" ON UNIT  53 AT TIME STEP 93, STRESS PERIOD   2
 UBDSV1 SAVING "FLOW RIGHT FACE " ON UNIT  53 AT TIME STEP 93, STRESS PERIOD   2
 UBDSV1 SAVING "FLOW FRONT FACE " ON UNIT  53 AT TIME STEP 93, STRESS PERIOD   2
 UBDSV1 SAVING "FLOW LOWER FACE " ON UNIT  53 AT TIME STEP 93, STRESS PERIOD   2
1
              HEAD IN LAYER   1 AT END OF TIME STEP  93 IN STRESS PERIOD    2
  ---------------------------------------------------------------------------

            1           2           3           4           5           6           7           8           9          10
 ........................................................................................................................
   1   10.000       9.881       9.705       9.405       8.894       8.068       6.817       5.056       2.762      2.4914E-03
   2   10.000       9.881       9.705       9.405       8.894       8.068       6.817       5.056       2.762      2.4914E-03
   3   10.000       9.881       9.705       9.405       8.894       8.068       6.817       5.056       2.762      2.4914E-03
   4   10.000       9.881       9.705       9.405       8.894       8.068       6.817       5.056       2.762      2.4914E-03
   5   10.000       9.881       9.705       9.405       8.894       8.068       6.817       5.056       2.762      2.4914E-03
   6   10.000       9.881       9.705       9.405       8.894       8.068       6.817       5.056       2.762      2.4914E-03
   7   10.000       9.881       9.705       9.405       8.894       8.068       6.817       5.056       2.762      2.4914E-03
   8   10.000       9.881       9.705       9.405       8.894       8.068       6.817       5.056       2.762      2.4914E-03
   9   10.000       9.881       9.705       9.405       8.894       8.068       6.817       5.056       2.762      2.4914E-03
  10   10.000       9.881       9.705       9.405       8.894       8.068       6.817       5.056       2.762      2.4914E-03
1
              HEAD IN LAYER   2 AT END OF TIME STEP  93 IN STRESS PERIOD    2
  ---------------------------------------------------------------------------

            1           2           3           4           5           6           7           8           9          10
 ........................................................................................................................
   1   10.000       9.878       9.698       9.394       8.878       8.047       6.793       5.033       2.745      5.7550E-03
   2   10.000       9.878       9.698       9.394       8.878       8.047       6.793       5.033       2.745      5.7550E-03
   3   10.000       9.878       9.698       9.394       8.878       8.047       6.793       5.033       2.745      5.7550E-03
   4   10.000       9.878       9.698       9.394       8.878       8.047       6.793       5.033       2.745      5.7550E-03
   5   10.000       9.878       9.698       9.394       8.878       8.047       6.793       5.033       2.745      5.7550E-03
   6   10.000       9.878       9.698       9.394       8.878       8.047       6.793       5.033       2.745      5.7550E-03
   7   10.000       9.878       9.698       9.394       8.878       8.047       6.793       5.033       2.745      5.7550E-03
   8   10.000       9.878       9.698       9.394       8.878       8.047       6.793       5.033       2.745      5.7550E-03
   9   10.000       9.878       9.698       9.394       8.878       8.047       6.793       5.033       2.745      5.7550E-03
  10   10.000       9.878       9.698       9.394       8.878       8.047       6.793       5.033       2.745      5.7550E-03
1
              HEAD IN LAYER   3 AT END OF TIME STEP  93 IN STRESS PERIOD    2
  ---------------------------------------------------------------------------

            1           2           3           4           5           6           7           8           9          10
 ........................................................................................................................
   1   10.000       9.875       9.693       9.385       8.865       8.030       6.773       5.011       2.727      6.4285E-03
   2   10.000       9.875       9.693       9.385       8.865       8.030       6.773       5.011       2.727      6.4285E-03
   3   10.000       9.875       9.693       9.385       8.865       8.030       6.773       5.011       2.727      6.4285E-03
   4   10.000       9.875       9.693       9.385       8.865       8.030       6.773       5.011       2.727      6.4285E-03
   5   10.000       9.875       9.693       9.385       8.865       8.030       6.773       5.011       2.727      6.4285E-03
   6   10.000       9.875       9.693       9.385       8.865       8.030       6.773       5.011       2.727      6.4285E-03
   7   10.000       9.875       9.693       9.385       8.865       8.030       6.773       5.011       2.727      6.4285E-03
   8   10.000       9.875       9.693       9.385       8.865       8.030       6.773       5.011       2.727      6.4285E-03
   9   10.000       9.875       9.693       9.385       8.865       8.030       6.773       5.011       2.727      6.4285E-03
  10   10.000       9.875       9.693       9.385       8.865       8.030       6.773       5.011       2.727      6.4285E-03
1
              HEAD IN LAYER   4 AT END OF TIME STEP  93 IN STRESS PERIOD    2
  ---------------------------------------------------------------------------

            1           2           3           4           5           6           7           8           9          10
 ........................................................................................................................
   1   10.000       9.874       9.690       9.380       8.857       8.018       6.759       4.997       2.716      6.4910E-03
   2   10.000       9.874       9.690       9.380       8.857       8.018       6.759       4.997       2.716      6.4910E-03
   3   10.000       9.874       9.690       9.380       8.857       8.018       6.759       4.997       2.716      6.4910E-03
   4   10.000       9.874       9.690       9.380       8.857       8.018       6.759       4.997       2.716      6.4910E-03
   5   10.000       9.874       9.690       9.380       8.857       8.018       6.759       4.997       2.716      6.4910E-03
   6   10.000       9.874       9.690       9.380       8.857       8.018       6.759       4.997       2.716      6.4910E-03
   7   10.000       9.874       9.690       9.380       8.857       8.018       6.759       4.997       2.716      6.4910E-03
   8   10.000       9.874       9.690       9.380       8.857       8.018       6.759       4.997       2.716      6.4910E-03
   9   10.000       9.874       9.690       9.380       8.857       8.018       6.759       4.997       2.716      6.4910E-03
  10   10.000       9.874       9.690       9.380       8.857       8.018       6.759       4.997       2.716      6.4910E-03
1
              HEAD IN LAYER   5 AT END OF TIME STEP  93 IN STRESS PERIOD    2
  ---------------------------------------------------------------------------

            1           2           3           4           5           6           7           8           9          10
 ........................................................................................................................
   1   10.000       9.873       9.688       9.377       8.852       8.013       6.752       4.990       2.710      6.4882E-03
   2   10.000       9.873       9.688       9.377       8.852       8.013       6.752       4.990       2.710      6.4882E-03
   3   10.000       9.873       9.688       9.377       8.852       8.013       6.752       4.990       2.710      6.4882E-03
   4   10.000       9.873       9.688       9.377       8.852       8.013       6.752       4.990       2.710      6.4882E-03
   5   10.000       9.873       9.688       9.377       8.852       8.013       6.752       4.990       2.710      6.4882E-03
   6   10.000       9.873       9.688       9.377       8.852       8.013       6.752       4.990       2.710      6.4882E-03
   7   10.000       9.873       9.688       9.377       8.852       8.013       6.752       4.990       2.710      6.4882E-03
   8   10.000       9.873       9.688       9.377       8.852       8.013       6.752       4.990       2.710      6.4882E-03
   9   10.000       9.873       9.688       9.377       8.852       8.013       6.752       4.990       2.710      6.4882E-03
  10   10.000       9.873       9.688       9.377       8.852       8.013       6.752       4.990       2.710      6.4882E-03

 HEAD WILL BE SAVED ON UNIT   51 AT END OF TIME STEP   93, STRESS PERIOD    2

 DRAWDOWN WILL BE SAVED ON UNIT   52 AT END OF TIME STEP   93, STRESS PERIOD    2
1
  VOLUMETRIC BUDGET FOR ENTIRE MODEL AT END OF TIME STEP   93, STRESS PERIOD   2
  ------------------------------------------------------------------------------

     CUMULATIVE VOLUMES      L**3       RATES FOR THIS TIME STEP      L**3/T
     ------------------                 ------------------------

           IN:                                      IN:
           ---                                      ---
             STORAGE =      308315.7812               STORAGE =        1308.6497
       CONSTANT HEAD =           0.0000         CONSTANT HEAD =           0.0000
               WELLS =           0.0000                 WELLS =           0.0000
     HEAD DEP BOUNDS =        1823.5549       HEAD DEP BOUNDS =          74.1231

            TOTAL IN =      310139.3438              TOTAL IN =        1382.7727

          OUT:                                     OUT:
          ----                                     ----
             STORAGE =           0.0000               STORAGE =           0.0000
       CONSTANT HEAD =           0.0000         CONSTANT HEAD =           0.0000
               WELLS =           0.0000                 WELLS =           0.0000
     HEAD DEP BOUNDS =      310140.0938       HEAD DEP BOUNDS =        1382.6984

           TOTAL OUT =      310140.0938             TOTAL OUT =        1382.6984

            IN - OUT =          -0.7500              IN - OUT =       7.4341E-02

 PERCENT DISCREPANCY =          -0.00     PERCENT DISCREPANCY =           0.01






         TIME SUMMARY AT END OF TIME STEP   93 IN STRESS PERIOD    2
                    SECONDS     MINUTES      HOURS       DAYS        YEARS
                    -----------------------------------------------------------
   TIME STEP LENGTH  86400.      1440.0      24.000      1.0000     2.73785E-03
 STRESS PERIOD TIME 8.03520E+06 1.33920E+05  2232.0      93.000     0.25462    
         TOTAL TIME 8.12160E+06 1.35360E+05  2256.0      94.000     0.25736    
1
 
 SOLVING FOR HEAD 

 OUTPUT CONTROL FOR STRESS PERIOD    2   TIME STEP   94
    SAVE HEAD FOR ALL LAYERS
    SAVE DRAWDOWN FOR ALL LAYERS
    SAVE BUDGET
    PRINT HEAD FOR ALL LAYERS
    PRINT BUDGET
 UBDSV1 SAVING "         STORAGE" ON UNIT  53 AT TIME STEP 94, STRESS PERIOD   2
 UBDSV2 SAVING "   CONSTANT HEAD" ON UNIT  53 AT TIME STEP 94, STRESS PERIOD   2
 UBDSV1 SAVING "FLOW RIGHT FACE " ON UNIT  53 AT TIME STEP 94, STRESS PERIOD   2
 UBDSV1 SAVING "FLOW FRONT FACE " ON UNIT  53 AT TIME STEP 94, STRESS PERIOD   2
 UBDSV1 SAVING "FLOW LOWER FACE " ON UNIT  53 AT TIME STEP 94, STRESS PERIOD   2
1
              HEAD IN LAYER   1 AT END OF TIME STEP  94 IN STRESS PERIOD    2
  ---------------------------------------------------------------------------

            1           2           3           4           5           6           7           8           9          10
 ........................................................................................................................
   1   10.000       9.878       9.698       9.393       8.877       8.046       6.793       5.033       2.748      2.4770E-03
   2   10.000       9.878       9.698       9.393       8.877       8.046       6.793       5.033       2.748      2.4770E-03
   3   10.000       9.878       9.698       9.393       8.877       8.046       6.793       5.033       2.748      2.4770E-03
   4   10.000       9.878       9.698       9.393       8.877       8.046       6.793       5.033       2.748      2.4770E-03
   5   10.000       9.878       9.698       9.393       8.877       8.046       6.793       5.033       2.748      2.4770E-03
   6   10.000       9.878       9.698       9.393       8.877       8.046       6.793       5.033       2.748      2.4770E-03
   7   10.000       9.878       9.698       9.393       8.877       8.046       6.793       5.033       2.748      2.4770E-03
   8   10.000       9.878       9.698       9.393       8.877       8.046       6.793       5.033       2.748      2.4770E-03
   9   10.000       9.878       9.698       9.393       8.877       8.046       6.793       5.033       2.748      2.4770E-03
  10   10.000       9.878       9.698       9.393       8.877       8.046       6.793       5.033       2.748      2.4770E-03
1
              HEAD IN LAYER   2 AT END OF TIME STEP  94 IN STRESS PERIOD    2
  ---------------------------------------------------------------------------

            1           2           3           4           5           6           7           8           9          10
 ........................................................................................................................
   1   10.000       9.874       9.691       9.382       8.861       8.025       6.769       5.010       2.731      5.7245E-03
   2   10.000       9.874       9.691       9.382       8.861       8.025       6.769       5.010       2.731      5.7245E-03
   3   10.000       9.874       9.691       9.382       8.861       8.025       6.769       5.010       2.731      5.7245E-03
   4   10.000       9.874       9.691       9.382       8.861       8.025       6.769       5.010       2.731      5.7245E-03
   5   10.000       9.874       9.691       9.382       8.861       8.025       6.769       5.010       2.731      5.7245E-03
   6   10.000       9.874       9.691       9.382       8.861       8.025       6.769       5.010       2.731      5.7245E-03
   7   10.000       9.874       9.691       9.382       8.861       8.025       6.769       5.010       2.731      5.7245E-03
   8   10.000       9.874       9.691       9.382       8.861       8.025       6.769       5.010       2.731      5.7245E-03
   9   10.000       9.874       9.691       9.382       8.861       8.025       6.769       5.010       2.731      5.7245E-03
  10   10.000       9.874       9.691       9.382       8.861       8.025       6.769       5.010       2.731      5.7245E-03
1
              HEAD IN LAYER   3 AT END OF TIME STEP  94 IN STRESS PERIOD    2
  ---------------------------------------------------------------------------

            1           2           3           4           5           6           7           8           9          10
 ........................................................................................................................
   1   10.000       9.872       9.686       9.373       8.848       8.008       6.748       4.989       2.713      6.3950E-03
   2   10.000       9.872       9.686       9.373       8.848       8.008       6.748       4.989       2.713      6.3950E-03
   3   10.000       9.872       9.686       9.373       8.848       8.008       6.748       4.989       2.713      6.3950E-03
   4   10.000       9.872       9.686       9.373       8.848       8.008       6.748       4.989       2.713      6.3950E-03
   5   10.000       9.872       9.686       9.373       8.848       8.008       6.748       4.989       2.713      6.3950E-03
   6   10.000       9.872       9.686       9.373       8.848       8.008       6.748       4.989       2.713      6.3950E-03
   7   10.000       9.872       9.686       9.373       8.848       8.008       6.748       4.989       2.713      6.3950E-03
   8   10.000       9.872       9.686       9.373       8.848       8.008       6.748       4.989       2.713      6.3950E-03
   9   10.000       9.872       9.686       9.373       8.848       8.008       6.748       4.989       2.713      6.3950E-03
  10   10.000       9.872       9.686       9.373       8.848       8.008       6.748       4.989       2.713      6.3950E-03
1
              HEAD IN LAYER   4 AT END OF TIME STEP  94 IN STRESS PERIOD    2
  ---------------------------------------------------------------------------

            1           2           3           4           5           6           7           8           9          10
 ........................................................................................................................
   1   10.000       9.870       9.683       9.368       8.839       7.997       6.735       4.975       2.702      6.4574E-03
   2   10.000       9.870       9.683       9.368       8.839       7.997       6.735       4.975       2.702      6.4574E-03
   3   10.000       9.870       9.683       9.368       8.839       7.997       6.735       4.975       2.702      6.4574E-03
   4   10.000       9.870       9.683       9.368       8.839       7.997       6.735       4.975       2.702      6.4574E-03
   5   10.000       9.870       9.683       9.368       8.839       7.997       6.735       4.975       2.702      6.4574E-03
   6   10.000       9.870       9.683       9.368       8.839       7.997       6.735       4.975       2.702      6.4574E-03
   7   10.000       9.870       9.683       9.368       8.839       7.997       6.735       4.975       2.702      6.4574E-03
   8   10.000       9.870       9.683       9.368       8.839       7.997       6.735       4.975       2.702      6.4574E-03
   9   10.000       9.870       9.683       9.368       8.839       7.997       6.735       4.975       2.702      6.4574E-03
  10   10.000       9.870       9.683       9.368       8.839       7.997       6.735       4.975       2.702      6.4574E-03
1
              HEAD IN LAYER   5 AT END OF TIME STEP  94 IN STRESS PERIOD    2
  ---------------------------------------------------------------------------

            1           2           3           4           5           6           7           8           9          10
 ........................................................................................................................
   1   10.000       9.870       9.681       9.365       8.835       7.991       6.728       4.968       2.696      6.4547E-03
   2   10.000       9.870       9.681       9.365       8.835       7.991       6.728       4.968       2.696      6.4547E-03
   3   10.000       9.870       9.681       9.365       8.835       7.991       6.728       4.968       2.696      6.4547E-03
   4   10.000       9.870       9.681       9.365       8.835       7.991       6.728       4.968       2.696      6.4547E-03
   5   10.000       9.870       9.681       9.365       8.835       7.991       6.728       4.968       2.696      6.4547E-03
   6   10.000       9.870       9.681       9.365       8.835       7.991       6.728       4.968       2.696      6.4547E-03
   7   10.000       9.870       9.681       9.365       8.835       7.991       6.728       4.968       2.696      6.4547E-03
   8   10.000       9.870       9.681       9.365       8.835       7.991       6.728       4.968       2.696      6.4547E-03
   9   10.000       9.870       9.681       9.365       8.835       7.991       6.728       4.968       2.696      6.4547E-03
  10   10.000       9.870       9.681       9.365       8.835       7.991       6.728       4.968       2.696      6.4547E-03

 HEAD WILL BE SAVED ON UNIT   51 AT END OF TIME STEP   94, STRESS PERIOD    2

 DRAWDOWN WILL BE SAVED ON UNIT   52 AT END OF TIME STEP   94, STRESS PERIOD    2
1
  VOLUMETRIC BUDGET FOR ENTIRE MODEL AT END OF TIME STEP   94, STRESS PERIOD   2
  ------------------------------------------------------------------------------

     CUMULATIVE VOLUMES      L**3       RATES FOR THIS TIME STEP      L**3/T
     ------------------                 ------------------------

           IN:                                      IN:
           ---                                      ---
             STORAGE =      309615.1875               STORAGE =        1299.4073
       CONSTANT HEAD =           0.0000         CONSTANT HEAD =           0.0000
               WELLS =           0.0000                 WELLS =           0.0000
     HEAD DEP BOUNDS =        1899.6100       HEAD DEP BOUNDS =          76.0551

            TOTAL IN =      311514.8125              TOTAL IN =        1375.4624

          OUT:                                     OUT:
          ----                                     ----
             STORAGE =           0.0000               STORAGE =           0.0000
       CONSTANT HEAD =           0.0000         CONSTANT HEAD =           0.0000
               WELLS =           0.0000                 WELLS =           0.0000
     HEAD DEP BOUNDS =      311515.5312       HEAD DEP BOUNDS =        1375.4326

           TOTAL OUT =      311515.5312             TOTAL OUT =        1375.4326

            IN - OUT =          -0.7188              IN - OUT =       2.9785E-02

 PERCENT DISCREPANCY =          -0.00     PERCENT DISCREPANCY =           0.00






         TIME SUMMARY AT END OF TIME STEP   94 IN STRESS PERIOD    2
                    SECONDS     MINUTES      HOURS       DAYS        YEARS
                    -----------------------------------------------------------
   TIME STEP LENGTH  86400.      1440.0      24.000      1.0000     2.73785E-03
 STRESS PERIOD TIME 8.12160E+06 1.35360E+05  2256.0      94.000     0.25736    
         TOTAL TIME 8.20800E+06 1.36800E+05  2280.0      95.000     0.26010    
1
 
 SOLVING FOR HEAD 

 OUTPUT CONTROL FOR STRESS PERIOD    2   TIME STEP   95
    SAVE HEAD FOR ALL LAYERS
    SAVE DRAWDOWN FOR ALL LAYERS
    SAVE BUDGET
    PRINT HEAD FOR ALL LAYERS
    PRINT BUDGET
 UBDSV1 SAVING "         STORAGE" ON UNIT  53 AT TIME STEP 95, STRESS PERIOD   2
 UBDSV2 SAVING "   CONSTANT HEAD" ON UNIT  53 AT TIME STEP 95, STRESS PERIOD   2
 UBDSV1 SAVING "FLOW RIGHT FACE " ON UNIT  53 AT TIME STEP 95, STRESS PERIOD   2
 UBDSV1 SAVING "FLOW FRONT FACE " ON UNIT  53 AT TIME STEP 95, STRESS PERIOD   2
 UBDSV1 SAVING "FLOW LOWER FACE " ON UNIT  53 AT TIME STEP 95, STRESS PERIOD   2
1
              HEAD IN LAYER   1 AT END OF TIME STEP  95 IN STRESS PERIOD    2
  ---------------------------------------------------------------------------

            1           2           3           4           5           6           7           8           9          10
 ........................................................................................................................
   1   10.000       9.874       9.691       9.382       8.860       8.024       6.768       5.010       2.733      2.4628E-03
   2   10.000       9.874       9.691       9.382       8.860       8.024       6.768       5.010       2.733      2.4628E-03
   3   10.000       9.874       9.691       9.382       8.860       8.024       6.768       5.010       2.733      2.4628E-03
   4   10.000       9.874       9.691       9.382       8.860       8.024       6.768       5.010       2.733      2.4628E-03
   5   10.000       9.874       9.691       9.382       8.860       8.024       6.768       5.010       2.733      2.4628E-03
   6   10.000       9.874       9.691       9.382       8.860       8.024       6.768       5.010       2.733      2.4628E-03
   7   10.000       9.874       9.691       9.382       8.860       8.024       6.768       5.010       2.733      2.4628E-03
   8   10.000       9.874       9.691       9.382       8.860       8.024       6.768       5.010       2.733      2.4628E-03
   9   10.000       9.874       9.691       9.382       8.860       8.024       6.768       5.010       2.733      2.4628E-03
  10   10.000       9.874       9.691       9.382       8.860       8.024       6.768       5.010       2.733      2.4628E-03
1
              HEAD IN LAYER   2 AT END OF TIME STEP  95 IN STRESS PERIOD    2
  ---------------------------------------------------------------------------

            1           2           3           4           5           6           7           8           9          10
 ........................................................................................................................
   1   10.000       9.871       9.684       9.370       8.844       8.003       6.745       4.988       2.717      5.6945E-03
   2   10.000       9.871       9.684       9.370       8.844       8.003       6.745       4.988       2.717      5.6945E-03
   3   10.000       9.871       9.684       9.370       8.844       8.003       6.745       4.988       2.717      5.6945E-03
   4   10.000       9.871       9.684       9.370       8.844       8.003       6.745       4.988       2.717      5.6945E-03
   5   10.000       9.871       9.684       9.370       8.844       8.003       6.745       4.988       2.717      5.6945E-03
   6   10.000       9.871       9.684       9.370       8.844       8.003       6.745       4.988       2.717      5.6945E-03
   7   10.000       9.871       9.684       9.370       8.844       8.003       6.745       4.988       2.717      5.6945E-03
   8   10.000       9.871       9.684       9.370       8.844       8.003       6.745       4.988       2.717      5.6945E-03
   9   10.000       9.871       9.684       9.370       8.844       8.003       6.745       4.988       2.717      5.6945E-03
  10   10.000       9.871       9.684       9.370       8.844       8.003       6.745       4.988       2.717      5.6945E-03
1
              HEAD IN LAYER   3 AT END OF TIME STEP  95 IN STRESS PERIOD    2
  ---------------------------------------------------------------------------

            1           2           3           4           5           6           7           8           9          10
 ........................................................................................................................
   1   10.000       9.869       9.679       9.362       8.831       7.986       6.724       4.967       2.699      6.3621E-03
   2   10.000       9.869       9.679       9.362       8.831       7.986       6.724       4.967       2.699      6.3621E-03
   3   10.000       9.869       9.679       9.362       8.831       7.986       6.724       4.967       2.699      6.3621E-03
   4   10.000       9.869       9.679       9.362       8.831       7.986       6.724       4.967       2.699      6.3621E-03
   5   10.000       9.869       9.679       9.362       8.831       7.986       6.724       4.967       2.699      6.3621E-03
   6   10.000       9.869       9.679       9.362       8.831       7.986       6.724       4.967       2.699      6.3621E-03
   7   10.000       9.869       9.679       9.362       8.831       7.986       6.724       4.967       2.699      6.3621E-03
   8   10.000       9.869       9.679       9.362       8.831       7.986       6.724       4.967       2.699      6.3621E-03
   9   10.000       9.869       9.679       9.362       8.831       7.986       6.724       4.967       2.699      6.3621E-03
  10   10.000       9.869       9.679       9.362       8.831       7.986       6.724       4.967       2.699      6.3621E-03
1
              HEAD IN LAYER   4 AT END OF TIME STEP  95 IN STRESS PERIOD    2
  ---------------------------------------------------------------------------

            1           2           3           4           5           6           7           8           9          10
 ........................................................................................................................
   1   10.000       9.867       9.675       9.356       8.822       7.975       6.711       4.953       2.688      6.4243E-03
   2   10.000       9.867       9.675       9.356       8.822       7.975       6.711       4.953       2.688      6.4243E-03
   3   10.000       9.867       9.675       9.356       8.822       7.975       6.711       4.953       2.688      6.4243E-03
   4   10.000       9.867       9.675       9.356       8.822       7.975       6.711       4.953       2.688      6.4243E-03
   5   10.000       9.867       9.675       9.356       8.822       7.975       6.711       4.953       2.688      6.4243E-03
   6   10.000       9.867       9.675       9.356       8.822       7.975       6.711       4.953       2.688      6.4243E-03
   7   10.000       9.867       9.675       9.356       8.822       7.975       6.711       4.953       2.688      6.4243E-03
   8   10.000       9.867       9.675       9.356       8.822       7.975       6.711       4.953       2.688      6.4243E-03
   9   10.000       9.867       9.675       9.356       8.822       7.975       6.711       4.953       2.688      6.4243E-03
  10   10.000       9.867       9.675       9.356       8.822       7.975       6.711       4.953       2.688      6.4243E-03
1
              HEAD IN LAYER   5 AT END OF TIME STEP  95 IN STRESS PERIOD    2
  ---------------------------------------------------------------------------

            1           2           3           4           5           6           7           8           9          10
 ........................................................................................................................
   1   10.000       9.866       9.674       9.353       8.818       7.969       6.704       4.946       2.682      6.4218E-03
   2   10.000       9.866       9.674       9.353       8.818       7.969       6.704       4.946       2.682      6.4218E-03
   3   10.000       9.866       9.674       9.353       8.818       7.969       6.704       4.946       2.682      6.4218E-03
   4   10.000       9.866       9.674       9.353       8.818       7.969       6.704       4.946       2.682      6.4218E-03
   5   10.000       9.866       9.674       9.353       8.818       7.969       6.704       4.946       2.682      6.4218E-03
   6   10.000       9.866       9.674       9.353       8.818       7.969       6.704       4.946       2.682      6.4218E-03
   7   10.000       9.866       9.674       9.353       8.818       7.969       6.704       4.946       2.682      6.4218E-03
   8   10.000       9.866       9.674       9.353       8.818       7.969       6.704       4.946       2.682      6.4218E-03
   9   10.000       9.866       9.674       9.353       8.818       7.969       6.704       4.946       2.682      6.4218E-03
  10   10.000       9.866       9.674       9.353       8.818       7.969       6.704       4.946       2.682      6.4218E-03

 HEAD WILL BE SAVED ON UNIT   51 AT END OF TIME STEP   95, STRESS PERIOD    2

 DRAWDOWN WILL BE SAVED ON UNIT   52 AT END OF TIME STEP   95, STRESS PERIOD    2
1
  VOLUMETRIC BUDGET FOR ENTIRE MODEL AT END OF TIME STEP   95, STRESS PERIOD   2
  ------------------------------------------------------------------------------

     CUMULATIVE VOLUMES      L**3       RATES FOR THIS TIME STEP      L**3/T
     ------------------                 ------------------------

           IN:                                      IN:
           ---                                      ---
             STORAGE =      310905.4375               STORAGE =        1290.2350
       CONSTANT HEAD =           0.0000         CONSTANT HEAD =           0.0000
               WELLS =           0.0000                 WELLS =           0.0000
     HEAD DEP BOUNDS =        1977.6810       HEAD DEP BOUNDS =          78.0710

            TOTAL IN =      312883.1250              TOTAL IN =        1368.3060

          OUT:                                     OUT:
          ----                                     ----
             STORAGE =           0.0000               STORAGE =           0.0000
       CONSTANT HEAD =           0.0000         CONSTANT HEAD =           0.0000
               WELLS =           0.0000                 WELLS =           0.0000
     HEAD DEP BOUNDS =      312883.8125       HEAD DEP BOUNDS =        1368.2773

           TOTAL OUT =      312883.8125             TOTAL OUT =        1368.2773

            IN - OUT =          -0.6875              IN - OUT =       2.8687E-02

 PERCENT DISCREPANCY =          -0.00     PERCENT DISCREPANCY =           0.00






         TIME SUMMARY AT END OF TIME STEP   95 IN STRESS PERIOD    2
                    SECONDS     MINUTES      HOURS       DAYS        YEARS
                    -----------------------------------------------------------
   TIME STEP LENGTH  86400.      1440.0      24.000      1.0000     2.73785E-03
 STRESS PERIOD TIME 8.20800E+06 1.36800E+05  2280.0      95.000     0.26010    
         TOTAL TIME 8.29440E+06 1.38240E+05  2304.0      96.000     0.26283    
1
 
 SOLVING FOR HEAD 

 OUTPUT CONTROL FOR STRESS PERIOD    2   TIME STEP   96
    SAVE HEAD FOR ALL LAYERS
    SAVE DRAWDOWN FOR ALL LAYERS
    SAVE BUDGET
    PRINT HEAD FOR ALL LAYERS
    PRINT BUDGET
 UBDSV1 SAVING "         STORAGE" ON UNIT  53 AT TIME STEP 96, STRESS PERIOD   2
 UBDSV2 SAVING "   CONSTANT HEAD" ON UNIT  53 AT TIME STEP 96, STRESS PERIOD   2
 UBDSV1 SAVING "FLOW RIGHT FACE " ON UNIT  53 AT TIME STEP 96, STRESS PERIOD   2
 UBDSV1 SAVING "FLOW FRONT FACE " ON UNIT  53 AT TIME STEP 96, STRESS PERIOD   2
 UBDSV1 SAVING "FLOW LOWER FACE " ON UNIT  53 AT TIME STEP 96, STRESS PERIOD   2
1
              HEAD IN LAYER   1 AT END OF TIME STEP  96 IN STRESS PERIOD    2
  ---------------------------------------------------------------------------

            1           2           3           4           5           6           7           8           9          10
 ........................................................................................................................
   1   10.000       9.871       9.684       9.370       8.843       8.002       6.744       4.988       2.719      2.4489E-03
   2   10.000       9.871       9.684       9.370       8.843       8.002       6.744       4.988       2.719      2.4489E-03
   3   10.000       9.871       9.684       9.370       8.843       8.002       6.744       4.988       2.719      2.4489E-03
   4   10.000       9.871       9.684       9.370       8.843       8.002       6.744       4.988       2.719      2.4489E-03
   5   10.000       9.871       9.684       9.370       8.843       8.002       6.744       4.988       2.719      2.4489E-03
   6   10.000       9.871       9.684       9.370       8.843       8.002       6.744       4.988       2.719      2.4489E-03
   7   10.000       9.871       9.684       9.370       8.843       8.002       6.744       4.988       2.719      2.4489E-03
   8   10.000       9.871       9.684       9.370       8.843       8.002       6.744       4.988       2.719      2.4489E-03
   9   10.000       9.871       9.684       9.370       8.843       8.002       6.744       4.988       2.719      2.4489E-03
  10   10.000       9.871       9.684       9.370       8.843       8.002       6.744       4.988       2.719      2.4489E-03
1
              HEAD IN LAYER   2 AT END OF TIME STEP  96 IN STRESS PERIOD    2
  ---------------------------------------------------------------------------

            1           2           3           4           5           6           7           8           9          10
 ........................................................................................................................
   1   10.000       9.868       9.677       9.358       8.827       7.982       6.720       4.966       2.703      5.6649E-03
   2   10.000       9.868       9.677       9.358       8.827       7.982       6.720       4.966       2.703      5.6649E-03
   3   10.000       9.868       9.677       9.358       8.827       7.982       6.720       4.966       2.703      5.6649E-03
   4   10.000       9.868       9.677       9.358       8.827       7.982       6.720       4.966       2.703      5.6649E-03
   5   10.000       9.868       9.677       9.358       8.827       7.982       6.720       4.966       2.703      5.6649E-03
   6   10.000       9.868       9.677       9.358       8.827       7.982       6.720       4.966       2.703      5.6649E-03
   7   10.000       9.868       9.677       9.358       8.827       7.982       6.720       4.966       2.703      5.6649E-03
   8   10.000       9.868       9.677       9.358       8.827       7.982       6.720       4.966       2.703      5.6649E-03
   9   10.000       9.868       9.677       9.358       8.827       7.982       6.720       4.966       2.703      5.6649E-03
  10   10.000       9.868       9.677       9.358       8.827       7.982       6.720       4.966       2.703      5.6649E-03
1
              HEAD IN LAYER   3 AT END OF TIME STEP  96 IN STRESS PERIOD    2
  ---------------------------------------------------------------------------

            1           2           3           4           5           6           7           8           9          10
 ........................................................................................................................
   1   10.000       9.865       9.672       9.350       8.814       7.965       6.700       4.945       2.685      6.3296E-03
   2   10.000       9.865       9.672       9.350       8.814       7.965       6.700       4.945       2.685      6.3296E-03
   3   10.000       9.865       9.672       9.350       8.814       7.965       6.700       4.945       2.685      6.3296E-03
   4   10.000       9.865       9.672       9.350       8.814       7.965       6.700       4.945       2.685      6.3296E-03
   5   10.000       9.865       9.672       9.350       8.814       7.965       6.700       4.945       2.685      6.3296E-03
   6   10.000       9.865       9.672       9.350       8.814       7.965       6.700       4.945       2.685      6.3296E-03
   7   10.000       9.865       9.672       9.350       8.814       7.965       6.700       4.945       2.685      6.3296E-03
   8   10.000       9.865       9.672       9.350       8.814       7.965       6.700       4.945       2.685      6.3296E-03
   9   10.000       9.865       9.672       9.350       8.814       7.965       6.700       4.945       2.685      6.3296E-03
  10   10.000       9.865       9.672       9.350       8.814       7.965       6.700       4.945       2.685      6.3296E-03
1
              HEAD IN LAYER   4 AT END OF TIME STEP  96 IN STRESS PERIOD    2
  ---------------------------------------------------------------------------

            1           2           3           4           5           6           7           8           9          10
 ........................................................................................................................
   1   10.000       9.864       9.668       9.344       8.805       7.953       6.687       4.931       2.674      6.3918E-03
   2   10.000       9.864       9.668       9.344       8.805       7.953       6.687       4.931       2.674      6.3918E-03
   3   10.000       9.864       9.668       9.344       8.805       7.953       6.687       4.931       2.674      6.3918E-03
   4   10.000       9.864       9.668       9.344       8.805       7.953       6.687       4.931       2.674      6.3918E-03
   5   10.000       9.864       9.668       9.344       8.805       7.953       6.687       4.931       2.674      6.3918E-03
   6   10.000       9.864       9.668       9.344       8.805       7.953       6.687       4.931       2.674      6.3918E-03
   7   10.000       9.864       9.668       9.344       8.805       7.953       6.687       4.931       2.674      6.3918E-03
   8   10.000       9.864       9.668       9.344       8.805       7.953       6.687       4.931       2.674      6.3918E-03
   9   10.000       9.864       9.668       9.344       8.805       7.953       6.687       4.931       2.674      6.3918E-03
  10   10.000       9.864       9.668       9.344       8.805       7.953       6.687       4.931       2.674      6.3918E-03
1
              HEAD IN LAYER   5 AT END OF TIME STEP  96 IN STRESS PERIOD    2
  ---------------------------------------------------------------------------

            1           2           3           4           5           6           7           8           9          10
 ........................................................................................................................
   1   10.000       9.863       9.666       9.341       8.801       7.948       6.680       4.925       2.668      6.3894E-03
   2   10.000       9.863       9.666       9.341       8.801       7.948       6.680       4.925       2.668      6.3894E-03
   3   10.000       9.863       9.666       9.341       8.801       7.948       6.680       4.925       2.668      6.3894E-03
   4   10.000       9.863       9.666       9.341       8.801       7.948       6.680       4.925       2.668      6.3894E-03
   5   10.000       9.863       9.666       9.341       8.801       7.948       6.680       4.925       2.668      6.3894E-03
   6   10.000       9.863       9.666       9.341       8.801       7.948       6.680       4.925       2.668      6.3894E-03
   7   10.000       9.863       9.666       9.341       8.801       7.948       6.680       4.925       2.668      6.3894E-03
   8   10.000       9.863       9.666       9.341       8.801       7.948       6.680       4.925       2.668      6.3894E-03
   9   10.000       9.863       9.666       9.341       8.801       7.948       6.680       4.925       2.668      6.3894E-03
  10   10.000       9.863       9.666       9.341       8.801       7.948       6.680       4.925       2.668      6.3894E-03

 HEAD WILL BE SAVED ON UNIT   51 AT END OF TIME STEP   96, STRESS PERIOD    2

 DRAWDOWN WILL BE SAVED ON UNIT   52 AT END OF TIME STEP   96, STRESS PERIOD    2
1
  VOLUMETRIC BUDGET FOR ENTIRE MODEL AT END OF TIME STEP   96, STRESS PERIOD   2
  ------------------------------------------------------------------------------

     CUMULATIVE VOLUMES      L**3       RATES FOR THIS TIME STEP      L**3/T
     ------------------                 ------------------------

           IN:                                      IN:
           ---                                      ---
             STORAGE =      312186.5938               STORAGE =        1281.1556
       CONSTANT HEAD =           0.0000         CONSTANT HEAD =           0.0000
               WELLS =           0.0000                 WELLS =           0.0000
     HEAD DEP BOUNDS =        2057.7837       HEAD DEP BOUNDS =          80.1026

            TOTAL IN =      314244.3750              TOTAL IN =        1361.2582

          OUT:                                     OUT:
          ----                                     ----
             STORAGE =           0.0000               STORAGE =           0.0000
       CONSTANT HEAD =           0.0000         CONSTANT HEAD =           0.0000
               WELLS =           0.0000                 WELLS =           0.0000
     HEAD DEP BOUNDS =      314245.0312       HEAD DEP BOUNDS =        1361.2285

           TOTAL OUT =      314245.0312             TOTAL OUT =        1361.2285

            IN - OUT =          -0.6562              IN - OUT =       2.9663E-02

 PERCENT DISCREPANCY =          -0.00     PERCENT DISCREPANCY =           0.00






         TIME SUMMARY AT END OF TIME STEP   96 IN STRESS PERIOD    2
                    SECONDS     MINUTES      HOURS       DAYS        YEARS
                    -----------------------------------------------------------
   TIME STEP LENGTH  86400.      1440.0      24.000      1.0000     2.73785E-03
 STRESS PERIOD TIME 8.29440E+06 1.38240E+05  2304.0      96.000     0.26283    
         TOTAL TIME 8.38080E+06 1.39680E+05  2328.0      97.000     0.26557    
1
 
 SOLVING FOR HEAD 

 OUTPUT CONTROL FOR STRESS PERIOD    2   TIME STEP   97
    SAVE HEAD FOR ALL LAYERS
    SAVE DRAWDOWN FOR ALL LAYERS
    SAVE BUDGET
    PRINT HEAD FOR ALL LAYERS
    PRINT BUDGET
 UBDSV1 SAVING "         STORAGE" ON UNIT  53 AT TIME STEP 97, STRESS PERIOD   2
 UBDSV2 SAVING "   CONSTANT HEAD" ON UNIT  53 AT TIME STEP 97, STRESS PERIOD   2
 UBDSV1 SAVING "FLOW RIGHT FACE " ON UNIT  53 AT TIME STEP 97, STRESS PERIOD   2
 UBDSV1 SAVING "FLOW FRONT FACE " ON UNIT  53 AT TIME STEP 97, STRESS PERIOD   2
 UBDSV1 SAVING "FLOW LOWER FACE " ON UNIT  53 AT TIME STEP 97, STRESS PERIOD   2
1
              HEAD IN LAYER   1 AT END OF TIME STEP  97 IN STRESS PERIOD    2
  ---------------------------------------------------------------------------

            1           2           3           4           5           6           7           8           9          10
 ........................................................................................................................
   1   10.000       9.867       9.676       9.358       8.826       7.981       6.720       4.966       2.705      2.4354E-03
   2   10.000       9.867       9.676       9.358       8.826       7.981       6.720       4.966       2.705      2.4354E-03
   3   10.000       9.867       9.676       9.358       8.826       7.981       6.720       4.966       2.705      2.4354E-03
   4   10.000       9.867       9.676       9.358       8.826       7.981       6.720       4.966       2.705      2.4354E-03
   5   10.000       9.867       9.676       9.358       8.826       7.981       6.720       4.966       2.705      2.4354E-03
   6   10.000       9.867       9.676       9.358       8.826       7.981       6.720       4.966       2.705      2.4354E-03
   7   10.000       9.867       9.676       9.358       8.826       7.981       6.720       4.966       2.705      2.4354E-03
   8   10.000       9.867       9.676       9.358       8.826       7.981       6.720       4.966       2.705      2.4354E-03
   9   10.000       9.867       9.676       9.358       8.826       7.981       6.720       4.966       2.705      2.4354E-03
  10   10.000       9.867       9.676       9.358       8.826       7.981       6.720       4.966       2.705      2.4354E-03
1
              HEAD IN LAYER   2 AT END OF TIME STEP  97 IN STRESS PERIOD    2
  ---------------------------------------------------------------------------

            1           2           3           4           5           6           7           8           9          10
 ........................................................................................................................
   1   10.000       9.864       9.669       9.346       8.810       7.960       6.697       4.944       2.689      5.6359E-03
   2   10.000       9.864       9.669       9.346       8.810       7.960       6.697       4.944       2.689      5.6359E-03
   3   10.000       9.864       9.669       9.346       8.810       7.960       6.697       4.944       2.689      5.6359E-03
   4   10.000       9.864       9.669       9.346       8.810       7.960       6.697       4.944       2.689      5.6359E-03
   5   10.000       9.864       9.669       9.346       8.810       7.960       6.697       4.944       2.689      5.6359E-03
   6   10.000       9.864       9.669       9.346       8.810       7.960       6.697       4.944       2.689      5.6359E-03
   7   10.000       9.864       9.669       9.346       8.810       7.960       6.697       4.944       2.689      5.6359E-03
   8   10.000       9.864       9.669       9.346       8.810       7.960       6.697       4.944       2.689      5.6359E-03
   9   10.000       9.864       9.669       9.346       8.810       7.960       6.697       4.944       2.689      5.6359E-03
  10   10.000       9.864       9.669       9.346       8.810       7.960       6.697       4.944       2.689      5.6359E-03
1
              HEAD IN LAYER   3 AT END OF TIME STEP  97 IN STRESS PERIOD    2
  ---------------------------------------------------------------------------

            1           2           3           4           5           6           7           8           9          10
 ........................................................................................................................
   1   10.000       9.862       9.664       9.338       8.797       7.943       6.677       4.924       2.672      6.2976E-03
   2   10.000       9.862       9.664       9.338       8.797       7.943       6.677       4.924       2.672      6.2976E-03
   3   10.000       9.862       9.664       9.338       8.797       7.943       6.677       4.924       2.672      6.2976E-03
   4   10.000       9.862       9.664       9.338       8.797       7.943       6.677       4.924       2.672      6.2976E-03
   5   10.000       9.862       9.664       9.338       8.797       7.943       6.677       4.924       2.672      6.2976E-03
   6   10.000       9.862       9.664       9.338       8.797       7.943       6.677       4.924       2.672      6.2976E-03
   7   10.000       9.862       9.664       9.338       8.797       7.943       6.677       4.924       2.672      6.2976E-03
   8   10.000       9.862       9.664       9.338       8.797       7.943       6.677       4.924       2.672      6.2976E-03
   9   10.000       9.862       9.664       9.338       8.797       7.943       6.677       4.924       2.672      6.2976E-03
  10   10.000       9.862       9.664       9.338       8.797       7.943       6.677       4.924       2.672      6.2976E-03
1
              HEAD IN LAYER   4 AT END OF TIME STEP  97 IN STRESS PERIOD    2
  ---------------------------------------------------------------------------

            1           2           3           4           5           6           7           8           9          10
 ........................................................................................................................
   1   10.000       9.860       9.661       9.332       8.788       7.932       6.663       4.910       2.661      6.3597E-03
   2   10.000       9.860       9.661       9.332       8.788       7.932       6.663       4.910       2.661      6.3597E-03
   3   10.000       9.860       9.661       9.332       8.788       7.932       6.663       4.910       2.661      6.3597E-03
   4   10.000       9.860       9.661       9.332       8.788       7.932       6.663       4.910       2.661      6.3597E-03
   5   10.000       9.860       9.661       9.332       8.788       7.932       6.663       4.910       2.661      6.3597E-03
   6   10.000       9.860       9.661       9.332       8.788       7.932       6.663       4.910       2.661      6.3597E-03
   7   10.000       9.860       9.661       9.332       8.788       7.932       6.663       4.910       2.661      6.3597E-03
   8   10.000       9.860       9.661       9.332       8.788       7.932       6.663       4.910       2.661      6.3597E-03
   9   10.000       9.860       9.661       9.332       8.788       7.932       6.663       4.910       2.661      6.3597E-03
  10   10.000       9.860       9.661       9.332       8.788       7.932       6.663       4.910       2.661      6.3597E-03
1
              HEAD IN LAYER   5 AT END OF TIME STEP  97 IN STRESS PERIOD    2
  ---------------------------------------------------------------------------

            1           2           3           4           5           6           7           8           9          10
 ........................................................................................................................
   1   10.000       9.859       9.659       9.329       8.784       7.926       6.657       4.903       2.655      6.3575E-03
   2   10.000       9.859       9.659       9.329       8.784       7.926       6.657       4.903       2.655      6.3575E-03
   3   10.000       9.859       9.659       9.329       8.784       7.926       6.657       4.903       2.655      6.3575E-03
   4   10.000       9.859       9.659       9.329       8.784       7.926       6.657       4.903       2.655      6.3575E-03
   5   10.000       9.859       9.659       9.329       8.784       7.926       6.657       4.903       2.655      6.3575E-03
   6   10.000       9.859       9.659       9.329       8.784       7.926       6.657       4.903       2.655      6.3575E-03
   7   10.000       9.859       9.659       9.329       8.784       7.926       6.657       4.903       2.655      6.3575E-03
   8   10.000       9.859       9.659       9.329       8.784       7.926       6.657       4.903       2.655      6.3575E-03
   9   10.000       9.859       9.659       9.329       8.784       7.926       6.657       4.903       2.655      6.3575E-03
  10   10.000       9.859       9.659       9.329       8.784       7.926       6.657       4.903       2.655      6.3575E-03

 HEAD WILL BE SAVED ON UNIT   51 AT END OF TIME STEP   97, STRESS PERIOD    2

 DRAWDOWN WILL BE SAVED ON UNIT   52 AT END OF TIME STEP   97, STRESS PERIOD    2
1
  VOLUMETRIC BUDGET FOR ENTIRE MODEL AT END OF TIME STEP   97, STRESS PERIOD   2
  ------------------------------------------------------------------------------

     CUMULATIVE VOLUMES      L**3       RATES FOR THIS TIME STEP      L**3/T
     ------------------                 ------------------------

           IN:                                      IN:
           ---                                      ---
             STORAGE =      313458.8125               STORAGE =        1272.2048
       CONSTANT HEAD =           0.0000         CONSTANT HEAD =           0.0000
               WELLS =           0.0000                 WELLS =           0.0000
     HEAD DEP BOUNDS =        2139.9329       HEAD DEP BOUNDS =          82.1491

            TOTAL IN =      315598.7500              TOTAL IN =        1354.3540

          OUT:                                     OUT:
          ----                                     ----
             STORAGE =           0.0000               STORAGE =           0.0000
       CONSTANT HEAD =           0.0000         CONSTANT HEAD =           0.0000
               WELLS =           0.0000                 WELLS =           0.0000
     HEAD DEP BOUNDS =      315599.3438       HEAD DEP BOUNDS =        1354.3025

           TOTAL OUT =      315599.3438             TOTAL OUT =        1354.3025

            IN - OUT =          -0.5938              IN - OUT =       5.1514E-02

 PERCENT DISCREPANCY =          -0.00     PERCENT DISCREPANCY =           0.00






         TIME SUMMARY AT END OF TIME STEP   97 IN STRESS PERIOD    2
                    SECONDS     MINUTES      HOURS       DAYS        YEARS
                    -----------------------------------------------------------
   TIME STEP LENGTH  86400.      1440.0      24.000      1.0000     2.73785E-03
 STRESS PERIOD TIME 8.38080E+06 1.39680E+05  2328.0      97.000     0.26557    
         TOTAL TIME 8.46720E+06 1.41120E+05  2352.0      98.000     0.26831    
1
 
 SOLVING FOR HEAD 

 OUTPUT CONTROL FOR STRESS PERIOD    2   TIME STEP   98
    SAVE HEAD FOR ALL LAYERS
    SAVE DRAWDOWN FOR ALL LAYERS
    SAVE BUDGET
    PRINT HEAD FOR ALL LAYERS
    PRINT BUDGET
 UBDSV1 SAVING "         STORAGE" ON UNIT  53 AT TIME STEP 98, STRESS PERIOD   2
 UBDSV2 SAVING "   CONSTANT HEAD" ON UNIT  53 AT TIME STEP 98, STRESS PERIOD   2
 UBDSV1 SAVING "FLOW RIGHT FACE " ON UNIT  53 AT TIME STEP 98, STRESS PERIOD   2
 UBDSV1 SAVING "FLOW FRONT FACE " ON UNIT  53 AT TIME STEP 98, STRESS PERIOD   2
 UBDSV1 SAVING "FLOW LOWER FACE " ON UNIT  53 AT TIME STEP 98, STRESS PERIOD   2
1
              HEAD IN LAYER   1 AT END OF TIME STEP  98 IN STRESS PERIOD    2
  ---------------------------------------------------------------------------

            1           2           3           4           5           6           7           8           9          10
 ........................................................................................................................
   1   10.000       9.864       9.669       9.346       8.809       7.959       6.696       4.944       2.691      2.4219E-03
   2   10.000       9.864       9.669       9.346       8.809       7.959       6.696       4.944       2.691      2.4219E-03
   3   10.000       9.864       9.669       9.346       8.809       7.959       6.696       4.944       2.691      2.4219E-03
   4   10.000       9.864       9.669       9.346       8.809       7.959       6.696       4.944       2.691      2.4219E-03
   5   10.000       9.864       9.669       9.346       8.809       7.959       6.696       4.944       2.691      2.4219E-03
   6   10.000       9.864       9.669       9.346       8.809       7.959       6.696       4.944       2.691      2.4219E-03
   7   10.000       9.864       9.669       9.346       8.809       7.959       6.696       4.944       2.691      2.4219E-03
   8   10.000       9.864       9.669       9.346       8.809       7.959       6.696       4.944       2.691      2.4219E-03
   9   10.000       9.864       9.669       9.346       8.809       7.959       6.696       4.944       2.691      2.4219E-03
  10   10.000       9.864       9.669       9.346       8.809       7.959       6.696       4.944       2.691      2.4219E-03
1
              HEAD IN LAYER   2 AT END OF TIME STEP  98 IN STRESS PERIOD    2
  ---------------------------------------------------------------------------

            1           2           3           4           5           6           7           8           9          10
 ........................................................................................................................
   1   10.000       9.861       9.662       9.334       8.793       7.938       6.673       4.923       2.675      5.6072E-03
   2   10.000       9.861       9.662       9.334       8.793       7.938       6.673       4.923       2.675      5.6072E-03
   3   10.000       9.861       9.662       9.334       8.793       7.938       6.673       4.923       2.675      5.6072E-03
   4   10.000       9.861       9.662       9.334       8.793       7.938       6.673       4.923       2.675      5.6072E-03
   5   10.000       9.861       9.662       9.334       8.793       7.938       6.673       4.923       2.675      5.6072E-03
   6   10.000       9.861       9.662       9.334       8.793       7.938       6.673       4.923       2.675      5.6072E-03
   7   10.000       9.861       9.662       9.334       8.793       7.938       6.673       4.923       2.675      5.6072E-03
   8   10.000       9.861       9.662       9.334       8.793       7.938       6.673       4.923       2.675      5.6072E-03
   9   10.000       9.861       9.662       9.334       8.793       7.938       6.673       4.923       2.675      5.6072E-03
  10   10.000       9.861       9.662       9.334       8.793       7.938       6.673       4.923       2.675      5.6072E-03
1
              HEAD IN LAYER   3 AT END OF TIME STEP  98 IN STRESS PERIOD    2
  ---------------------------------------------------------------------------

            1           2           3           4           5           6           7           8           9          10
 ........................................................................................................................
   1   10.000       9.858       9.657       9.326       8.780       7.922       6.653       4.903       2.659      6.2661E-03
   2   10.000       9.858       9.657       9.326       8.780       7.922       6.653       4.903       2.659      6.2661E-03
   3   10.000       9.858       9.657       9.326       8.780       7.922       6.653       4.903       2.659      6.2661E-03
   4   10.000       9.858       9.657       9.326       8.780       7.922       6.653       4.903       2.659      6.2661E-03
   5   10.000       9.858       9.657       9.326       8.780       7.922       6.653       4.903       2.659      6.2661E-03
   6   10.000       9.858       9.657       9.326       8.780       7.922       6.653       4.903       2.659      6.2661E-03
   7   10.000       9.858       9.657       9.326       8.780       7.922       6.653       4.903       2.659      6.2661E-03
   8   10.000       9.858       9.657       9.326       8.780       7.922       6.653       4.903       2.659      6.2661E-03
   9   10.000       9.858       9.657       9.326       8.780       7.922       6.653       4.903       2.659      6.2661E-03
  10   10.000       9.858       9.657       9.326       8.780       7.922       6.653       4.903       2.659      6.2661E-03
1
              HEAD IN LAYER   4 AT END OF TIME STEP  98 IN STRESS PERIOD    2
  ---------------------------------------------------------------------------

            1           2           3           4           5           6           7           8           9          10
 ........................................................................................................................
   1   10.000       9.857       9.653       9.320       8.771       7.911       6.640       4.889       2.647      6.3281E-03
   2   10.000       9.857       9.653       9.320       8.771       7.911       6.640       4.889       2.647      6.3281E-03
   3   10.000       9.857       9.653       9.320       8.771       7.911       6.640       4.889       2.647      6.3281E-03
   4   10.000       9.857       9.653       9.320       8.771       7.911       6.640       4.889       2.647      6.3281E-03
   5   10.000       9.857       9.653       9.320       8.771       7.911       6.640       4.889       2.647      6.3281E-03
   6   10.000       9.857       9.653       9.320       8.771       7.911       6.640       4.889       2.647      6.3281E-03
   7   10.000       9.857       9.653       9.320       8.771       7.911       6.640       4.889       2.647      6.3281E-03
   8   10.000       9.857       9.653       9.320       8.771       7.911       6.640       4.889       2.647      6.3281E-03
   9   10.000       9.857       9.653       9.320       8.771       7.911       6.640       4.889       2.647      6.3281E-03
  10   10.000       9.857       9.653       9.320       8.771       7.911       6.640       4.889       2.647      6.3281E-03
1
              HEAD IN LAYER   5 AT END OF TIME STEP  98 IN STRESS PERIOD    2
  ---------------------------------------------------------------------------

            1           2           3           4           5           6           7           8           9          10
 ........................................................................................................................
   1   10.000       9.856       9.652       9.317       8.767       7.905       6.634       4.882       2.642      6.3260E-03
   2   10.000       9.856       9.652       9.317       8.767       7.905       6.634       4.882       2.642      6.3260E-03
   3   10.000       9.856       9.652       9.317       8.767       7.905       6.634       4.882       2.642      6.3260E-03
   4   10.000       9.856       9.652       9.317       8.767       7.905       6.634       4.882       2.642      6.3260E-03
   5   10.000       9.856       9.652       9.317       8.767       7.905       6.634       4.882       2.642      6.3260E-03
   6   10.000       9.856       9.652       9.317       8.767       7.905       6.634       4.882       2.642      6.3260E-03
   7   10.000       9.856       9.652       9.317       8.767       7.905       6.634       4.882       2.642      6.3260E-03
   8   10.000       9.856       9.652       9.317       8.767       7.905       6.634       4.882       2.642      6.3260E-03
   9   10.000       9.856       9.652       9.317       8.767       7.905       6.634       4.882       2.642      6.3260E-03
  10   10.000       9.856       9.652       9.317       8.767       7.905       6.634       4.882       2.642      6.3260E-03

 HEAD WILL BE SAVED ON UNIT   51 AT END OF TIME STEP   98, STRESS PERIOD    2

 DRAWDOWN WILL BE SAVED ON UNIT   52 AT END OF TIME STEP   98, STRESS PERIOD    2
1
  VOLUMETRIC BUDGET FOR ENTIRE MODEL AT END OF TIME STEP   98, STRESS PERIOD   2
  ------------------------------------------------------------------------------

     CUMULATIVE VOLUMES      L**3       RATES FOR THIS TIME STEP      L**3/T
     ------------------                 ------------------------

           IN:                                      IN:
           ---                                      ---
             STORAGE =      314722.1250               STORAGE =        1263.3109
       CONSTANT HEAD =           0.0000         CONSTANT HEAD =           0.0000
               WELLS =           0.0000                 WELLS =           0.0000
     HEAD DEP BOUNDS =        2224.1428       HEAD DEP BOUNDS =          84.2101

            TOTAL IN =      316946.2812              TOTAL IN =        1347.5210

          OUT:                                     OUT:
          ----                                     ----
             STORAGE =           0.0000               STORAGE =           0.0000
       CONSTANT HEAD =           0.0000         CONSTANT HEAD =           0.0000
               WELLS =           0.0000                 WELLS =           0.0000
     HEAD DEP BOUNDS =      316946.8125       HEAD DEP BOUNDS =        1347.4701

           TOTAL OUT =      316946.8125             TOTAL OUT =        1347.4701

            IN - OUT =          -0.5312              IN - OUT =       5.0903E-02

 PERCENT DISCREPANCY =          -0.00     PERCENT DISCREPANCY =           0.00






         TIME SUMMARY AT END OF TIME STEP   98 IN STRESS PERIOD    2
                    SECONDS     MINUTES      HOURS       DAYS        YEARS
                    -----------------------------------------------------------
   TIME STEP LENGTH  86400.      1440.0      24.000      1.0000     2.73785E-03
 STRESS PERIOD TIME 8.46720E+06 1.41120E+05  2352.0      98.000     0.26831    
         TOTAL TIME 8.55360E+06 1.42560E+05  2376.0      99.000     0.27105    
1
 
 SOLVING FOR HEAD 

 OUTPUT CONTROL FOR STRESS PERIOD    2   TIME STEP   99
    SAVE HEAD FOR ALL LAYERS
    SAVE DRAWDOWN FOR ALL LAYERS
    SAVE BUDGET
    PRINT HEAD FOR ALL LAYERS
    PRINT BUDGET
 UBDSV1 SAVING "         STORAGE" ON UNIT  53 AT TIME STEP 99, STRESS PERIOD   2
 UBDSV2 SAVING "   CONSTANT HEAD" ON UNIT  53 AT TIME STEP 99, STRESS PERIOD   2
 UBDSV1 SAVING "FLOW RIGHT FACE " ON UNIT  53 AT TIME STEP 99, STRESS PERIOD   2
 UBDSV1 SAVING "FLOW FRONT FACE " ON UNIT  53 AT TIME STEP 99, STRESS PERIOD   2
 UBDSV1 SAVING "FLOW LOWER FACE " ON UNIT  53 AT TIME STEP 99, STRESS PERIOD   2
1
              HEAD IN LAYER   1 AT END OF TIME STEP  99 IN STRESS PERIOD    2
  ---------------------------------------------------------------------------

            1           2           3           4           5           6           7           8           9          10
 ........................................................................................................................
   1   10.000       9.861       9.662       9.334       8.792       7.938       6.672       4.923       2.677      2.4086E-03
   2   10.000       9.861       9.662       9.334       8.792       7.938       6.672       4.923       2.677      2.4086E-03
   3   10.000       9.861       9.662       9.334       8.792       7.938       6.672       4.923       2.677      2.4086E-03
   4   10.000       9.861       9.662       9.334       8.792       7.938       6.672       4.923       2.677      2.4086E-03
   5   10.000       9.861       9.662       9.334       8.792       7.938       6.672       4.923       2.677      2.4086E-03
   6   10.000       9.861       9.662       9.334       8.792       7.938       6.672       4.923       2.677      2.4086E-03
   7   10.000       9.861       9.662       9.334       8.792       7.938       6.672       4.923       2.677      2.4086E-03
   8   10.000       9.861       9.662       9.334       8.792       7.938       6.672       4.923       2.677      2.4086E-03
   9   10.000       9.861       9.662       9.334       8.792       7.938       6.672       4.923       2.677      2.4086E-03
  10   10.000       9.861       9.662       9.334       8.792       7.938       6.672       4.923       2.677      2.4086E-03
1
              HEAD IN LAYER   2 AT END OF TIME STEP  99 IN STRESS PERIOD    2
  ---------------------------------------------------------------------------

            1           2           3           4           5           6           7           8           9          10
 ........................................................................................................................
   1   10.000       9.857       9.655       9.322       8.776       7.917       6.650       4.902       2.662      5.5790E-03
   2   10.000       9.857       9.655       9.322       8.776       7.917       6.650       4.902       2.662      5.5790E-03
   3   10.000       9.857       9.655       9.322       8.776       7.917       6.650       4.902       2.662      5.5790E-03
   4   10.000       9.857       9.655       9.322       8.776       7.917       6.650       4.902       2.662      5.5790E-03
   5   10.000       9.857       9.655       9.322       8.776       7.917       6.650       4.902       2.662      5.5790E-03
   6   10.000       9.857       9.655       9.322       8.776       7.917       6.650       4.902       2.662      5.5790E-03
   7   10.000       9.857       9.655       9.322       8.776       7.917       6.650       4.902       2.662      5.5790E-03
   8   10.000       9.857       9.655       9.322       8.776       7.917       6.650       4.902       2.662      5.5790E-03
   9   10.000       9.857       9.655       9.322       8.776       7.917       6.650       4.902       2.662      5.5790E-03
  10   10.000       9.857       9.655       9.322       8.776       7.917       6.650       4.902       2.662      5.5790E-03
1
              HEAD IN LAYER   3 AT END OF TIME STEP  99 IN STRESS PERIOD    2
  ---------------------------------------------------------------------------

            1           2           3           4           5           6           7           8           9          10
 ........................................................................................................................
   1   10.000       9.855       9.649       9.314       8.763       7.900       6.630       4.882       2.645      6.2351E-03
   2   10.000       9.855       9.649       9.314       8.763       7.900       6.630       4.882       2.645      6.2351E-03
   3   10.000       9.855       9.649       9.314       8.763       7.900       6.630       4.882       2.645      6.2351E-03
   4   10.000       9.855       9.649       9.314       8.763       7.900       6.630       4.882       2.645      6.2351E-03
   5   10.000       9.855       9.649       9.314       8.763       7.900       6.630       4.882       2.645      6.2351E-03
   6   10.000       9.855       9.649       9.314       8.763       7.900       6.630       4.882       2.645      6.2351E-03
   7   10.000       9.855       9.649       9.314       8.763       7.900       6.630       4.882       2.645      6.2351E-03
   8   10.000       9.855       9.649       9.314       8.763       7.900       6.630       4.882       2.645      6.2351E-03
   9   10.000       9.855       9.649       9.314       8.763       7.900       6.630       4.882       2.645      6.2351E-03
  10   10.000       9.855       9.649       9.314       8.763       7.900       6.630       4.882       2.645      6.2351E-03
1
              HEAD IN LAYER   4 AT END OF TIME STEP  99 IN STRESS PERIOD    2
  ---------------------------------------------------------------------------

            1           2           3           4           5           6           7           8           9          10
 ........................................................................................................................
   1   10.000       9.853       9.646       9.308       8.754       7.889       6.617       4.868       2.634      6.2970E-03
   2   10.000       9.853       9.646       9.308       8.754       7.889       6.617       4.868       2.634      6.2970E-03
   3   10.000       9.853       9.646       9.308       8.754       7.889       6.617       4.868       2.634      6.2970E-03
   4   10.000       9.853       9.646       9.308       8.754       7.889       6.617       4.868       2.634      6.2970E-03
   5   10.000       9.853       9.646       9.308       8.754       7.889       6.617       4.868       2.634      6.2970E-03
   6   10.000       9.853       9.646       9.308       8.754       7.889       6.617       4.868       2.634      6.2970E-03
   7   10.000       9.853       9.646       9.308       8.754       7.889       6.617       4.868       2.634      6.2970E-03
   8   10.000       9.853       9.646       9.308       8.754       7.889       6.617       4.868       2.634      6.2970E-03
   9   10.000       9.853       9.646       9.308       8.754       7.889       6.617       4.868       2.634      6.2970E-03
  10   10.000       9.853       9.646       9.308       8.754       7.889       6.617       4.868       2.634      6.2970E-03
1
              HEAD IN LAYER   5 AT END OF TIME STEP  99 IN STRESS PERIOD    2
  ---------------------------------------------------------------------------

            1           2           3           4           5           6           7           8           9          10
 ........................................................................................................................
   1   10.000       9.852       9.644       9.305       8.750       7.884       6.611       4.862       2.629      6.2950E-03
   2   10.000       9.852       9.644       9.305       8.750       7.884       6.611       4.862       2.629      6.2950E-03
   3   10.000       9.852       9.644       9.305       8.750       7.884       6.611       4.862       2.629      6.2950E-03
   4   10.000       9.852       9.644       9.305       8.750       7.884       6.611       4.862       2.629      6.2950E-03
   5   10.000       9.852       9.644       9.305       8.750       7.884       6.611       4.862       2.629      6.2950E-03
   6   10.000       9.852       9.644       9.305       8.750       7.884       6.611       4.862       2.629      6.2950E-03
   7   10.000       9.852       9.644       9.305       8.750       7.884       6.611       4.862       2.629      6.2950E-03
   8   10.000       9.852       9.644       9.305       8.750       7.884       6.611       4.862       2.629      6.2950E-03
   9   10.000       9.852       9.644       9.305       8.750       7.884       6.611       4.862       2.629      6.2950E-03
  10   10.000       9.852       9.644       9.305       8.750       7.884       6.611       4.862       2.629      6.2950E-03

 HEAD WILL BE SAVED ON UNIT   51 AT END OF TIME STEP   99, STRESS PERIOD    2

 DRAWDOWN WILL BE SAVED ON UNIT   52 AT END OF TIME STEP   99, STRESS PERIOD    2
1
  VOLUMETRIC BUDGET FOR ENTIRE MODEL AT END OF TIME STEP   99, STRESS PERIOD   2
  ------------------------------------------------------------------------------

     CUMULATIVE VOLUMES      L**3       RATES FOR THIS TIME STEP      L**3/T
     ------------------                 ------------------------

           IN:                                      IN:
           ---                                      ---
             STORAGE =      315976.5938               STORAGE =        1254.4791
       CONSTANT HEAD =           0.0000         CONSTANT HEAD =           0.0000
               WELLS =           0.0000                 WELLS =           0.0000
     HEAD DEP BOUNDS =        2310.3599       HEAD DEP BOUNDS =          86.2171

            TOTAL IN =      318286.9688              TOTAL IN =        1340.6962

          OUT:                                     OUT:
          ----                                     ----
             STORAGE =           0.0000               STORAGE =           0.0000
       CONSTANT HEAD =           0.0000         CONSTANT HEAD =           0.0000
               WELLS =           0.0000                 WELLS =           0.0000
     HEAD DEP BOUNDS =      318287.5625       HEAD DEP BOUNDS =        1340.7371

           TOTAL OUT =      318287.5625             TOTAL OUT =        1340.7371

            IN - OUT =          -0.5938              IN - OUT =      -4.0894E-02

 PERCENT DISCREPANCY =          -0.00     PERCENT DISCREPANCY =          -0.00






         TIME SUMMARY AT END OF TIME STEP   99 IN STRESS PERIOD    2
                    SECONDS     MINUTES      HOURS       DAYS        YEARS
                    -----------------------------------------------------------
   TIME STEP LENGTH  86400.      1440.0      24.000      1.0000     2.73785E-03
 STRESS PERIOD TIME 8.55360E+06 1.42560E+05  2376.0      99.000     0.27105    
         TOTAL TIME 8.64000E+06 1.44000E+05  2400.0      100.00     0.27379    
1
 
 SOLVING FOR HEAD 

 OUTPUT CONTROL FOR STRESS PERIOD    2   TIME STEP  100
    SAVE HEAD FOR ALL LAYERS
    SAVE DRAWDOWN FOR ALL LAYERS
    SAVE BUDGET
    PRINT HEAD FOR ALL LAYERS
    PRINT BUDGET
 UBDSV1 SAVING "         STORAGE" ON UNIT  53 AT TIME STEP100, STRESS PERIOD   2
 UBDSV2 SAVING "   CONSTANT HEAD" ON UNIT  53 AT TIME STEP100, STRESS PERIOD   2
 UBDSV1 SAVING "FLOW RIGHT FACE " ON UNIT  53 AT TIME STEP100, STRESS PERIOD   2
 UBDSV1 SAVING "FLOW FRONT FACE " ON UNIT  53 AT TIME STEP100, STRESS PERIOD   2
 UBDSV1 SAVING "FLOW LOWER FACE " ON UNIT  53 AT TIME STEP100, STRESS PERIOD   2
1
              HEAD IN LAYER   1 AT END OF TIME STEP 100 IN STRESS PERIOD    2
  ---------------------------------------------------------------------------

            1           2           3           4           5           6           7           8           9          10
 ........................................................................................................................
   1   10.000       9.857       9.654       9.322       8.775       7.916       6.649       4.902       2.664      2.3957E-03
   2   10.000       9.857       9.654       9.322       8.775       7.916       6.649       4.902       2.664      2.3957E-03
   3   10.000       9.857       9.654       9.322       8.775       7.916       6.649       4.902       2.664      2.3957E-03
   4   10.000       9.857       9.654       9.322       8.775       7.916       6.649       4.902       2.664      2.3957E-03
   5   10.000       9.857       9.654       9.322       8.775       7.916       6.649       4.902       2.664      2.3957E-03
   6   10.000       9.857       9.654       9.322       8.775       7.916       6.649       4.902       2.664      2.3957E-03
   7   10.000       9.857       9.654       9.322       8.775       7.916       6.649       4.902       2.664      2.3957E-03
   8   10.000       9.857       9.654       9.322       8.775       7.916       6.649       4.902       2.664      2.3957E-03
   9   10.000       9.857       9.654       9.322       8.775       7.916       6.649       4.902       2.664      2.3957E-03
  10   10.000       9.857       9.654       9.322       8.775       7.916       6.649       4.902       2.664      2.3957E-03
1
              HEAD IN LAYER   2 AT END OF TIME STEP 100 IN STRESS PERIOD    2
  ---------------------------------------------------------------------------

            1           2           3           4           5           6           7           8           9          10
 ........................................................................................................................
   1   10.000       9.854       9.647       9.310       8.759       7.896       6.627       4.881       2.649      5.5512E-03
   2   10.000       9.854       9.647       9.310       8.759       7.896       6.627       4.881       2.649      5.5512E-03
   3   10.000       9.854       9.647       9.310       8.759       7.896       6.627       4.881       2.649      5.5512E-03
   4   10.000       9.854       9.647       9.310       8.759       7.896       6.627       4.881       2.649      5.5512E-03
   5   10.000       9.854       9.647       9.310       8.759       7.896       6.627       4.881       2.649      5.5512E-03
   6   10.000       9.854       9.647       9.310       8.759       7.896       6.627       4.881       2.649      5.5512E-03
   7   10.000       9.854       9.647       9.310       8.759       7.896       6.627       4.881       2.649      5.5512E-03
   8   10.000       9.854       9.647       9.310       8.759       7.896       6.627       4.881       2.649      5.5512E-03
   9   10.000       9.854       9.647       9.310       8.759       7.896       6.627       4.881       2.649      5.5512E-03
  10   10.000       9.854       9.647       9.310       8.759       7.896       6.627       4.881       2.649      5.5512E-03
1
              HEAD IN LAYER   3 AT END OF TIME STEP 100 IN STRESS PERIOD    2
  ---------------------------------------------------------------------------

            1           2           3           4           5           6           7           8           9          10
 ........................................................................................................................
   1   10.000       9.851       9.642       9.302       8.746       7.879       6.607       4.861       2.632      6.2045E-03
   2   10.000       9.851       9.642       9.302       8.746       7.879       6.607       4.861       2.632      6.2045E-03
   3   10.000       9.851       9.642       9.302       8.746       7.879       6.607       4.861       2.632      6.2045E-03
   4   10.000       9.851       9.642       9.302       8.746       7.879       6.607       4.861       2.632      6.2045E-03
   5   10.000       9.851       9.642       9.302       8.746       7.879       6.607       4.861       2.632      6.2045E-03
   6   10.000       9.851       9.642       9.302       8.746       7.879       6.607       4.861       2.632      6.2045E-03
   7   10.000       9.851       9.642       9.302       8.746       7.879       6.607       4.861       2.632      6.2045E-03
   8   10.000       9.851       9.642       9.302       8.746       7.879       6.607       4.861       2.632      6.2045E-03
   9   10.000       9.851       9.642       9.302       8.746       7.879       6.607       4.861       2.632      6.2045E-03
  10   10.000       9.851       9.642       9.302       8.746       7.879       6.607       4.861       2.632      6.2045E-03
1
              HEAD IN LAYER   4 AT END OF TIME STEP 100 IN STRESS PERIOD    2
  ---------------------------------------------------------------------------

            1           2           3           4           5           6           7           8           9          10
 ........................................................................................................................
   1   10.000       9.850       9.638       9.296       8.738       7.868       6.594       4.848       2.622      6.2664E-03
   2   10.000       9.850       9.638       9.296       8.738       7.868       6.594       4.848       2.622      6.2664E-03
   3   10.000       9.850       9.638       9.296       8.738       7.868       6.594       4.848       2.622      6.2664E-03
   4   10.000       9.850       9.638       9.296       8.738       7.868       6.594       4.848       2.622      6.2664E-03
   5   10.000       9.850       9.638       9.296       8.738       7.868       6.594       4.848       2.622      6.2664E-03
   6   10.000       9.850       9.638       9.296       8.738       7.868       6.594       4.848       2.622      6.2664E-03
   7   10.000       9.850       9.638       9.296       8.738       7.868       6.594       4.848       2.622      6.2664E-03
   8   10.000       9.850       9.638       9.296       8.738       7.868       6.594       4.848       2.622      6.2664E-03
   9   10.000       9.850       9.638       9.296       8.738       7.868       6.594       4.848       2.622      6.2664E-03
  10   10.000       9.850       9.638       9.296       8.738       7.868       6.594       4.848       2.622      6.2664E-03
1
              HEAD IN LAYER   5 AT END OF TIME STEP 100 IN STRESS PERIOD    2
  ---------------------------------------------------------------------------

            1           2           3           4           5           6           7           8           9          10
 ........................................................................................................................
   1   10.000       9.849       9.637       9.293       8.733       7.863       6.588       4.841       2.616      6.2645E-03
   2   10.000       9.849       9.637       9.293       8.733       7.863       6.588       4.841       2.616      6.2645E-03
   3   10.000       9.849       9.637       9.293       8.733       7.863       6.588       4.841       2.616      6.2645E-03
   4   10.000       9.849       9.637       9.293       8.733       7.863       6.588       4.841       2.616      6.2645E-03
   5   10.000       9.849       9.637       9.293       8.733       7.863       6.588       4.841       2.616      6.2645E-03
   6   10.000       9.849       9.637       9.293       8.733       7.863       6.588       4.841       2.616      6.2645E-03
   7   10.000       9.849       9.637       9.293       8.733       7.863       6.588       4.841       2.616      6.2645E-03
   8   10.000       9.849       9.637       9.293       8.733       7.863       6.588       4.841       2.616      6.2645E-03
   9   10.000       9.849       9.637       9.293       8.733       7.863       6.588       4.841       2.616      6.2645E-03
  10   10.000       9.849       9.637       9.293       8.733       7.863       6.588       4.841       2.616      6.2645E-03

 HEAD WILL BE SAVED ON UNIT   51 AT END OF TIME STEP  100, STRESS PERIOD    2

 DRAWDOWN WILL BE SAVED ON UNIT   52 AT END OF TIME STEP  100, STRESS PERIOD    2
1
  VOLUMETRIC BUDGET FOR ENTIRE MODEL AT END OF TIME STEP  100, STRESS PERIOD   2
  ------------------------------------------------------------------------------

     CUMULATIVE VOLUMES      L**3       RATES FOR THIS TIME STEP      L**3/T
     ------------------                 ------------------------

           IN:                                      IN:
           ---                                      ---
             STORAGE =      317222.3750               STORAGE =        1245.7952
       CONSTANT HEAD =           0.0000         CONSTANT HEAD =           0.0000
               WELLS =           0.0000                 WELLS =           0.0000
     HEAD DEP BOUNDS =        2398.6650       HEAD DEP BOUNDS =          88.3052

            TOTAL IN =      319621.0312              TOTAL IN =        1334.1003

          OUT:                                     OUT:
          ----                                     ----
             STORAGE =           0.0000               STORAGE =           0.0000
       CONSTANT HEAD =           0.0000         CONSTANT HEAD =           0.0000
               WELLS =           0.0000                 WELLS =           0.0000
     HEAD DEP BOUNDS =      319621.6875       HEAD DEP BOUNDS =        1334.1104

           TOTAL OUT =      319621.6875             TOTAL OUT =        1334.1104

            IN - OUT =          -0.6562              IN - OUT =      -1.0010E-02

 PERCENT DISCREPANCY =          -0.00     PERCENT DISCREPANCY =          -0.00






         TIME SUMMARY AT END OF TIME STEP  100 IN STRESS PERIOD    2
                    SECONDS     MINUTES      HOURS       DAYS        YEARS
                    -----------------------------------------------------------
   TIME STEP LENGTH  86400.      1440.0      24.000      1.0000     2.73785E-03
 STRESS PERIOD TIME 8.64000E+06 1.44000E+05  2400.0      100.00     0.27379    
         TOTAL TIME 8.72640E+06 1.45440E+05  2424.0      101.00     0.27652    
1
1
                            STRESS PERIOD NO.    3, LENGTH =   100.0000    
                            -----------------------------------------------

                              NUMBER OF TIME STEPS =   100

                               MULTIPLIER FOR DELT =     1.000

                            INITIAL TIME STEP SIZE =   1.000000    

 WELL NO.  LAYER   ROW   COL   STRESS RATE         
 --------------------------------------------------
      1      1      5      5      -500.0    

      1 WELL 

 REUSING NON-PARAMETER GHB CELLS FROM LAST STRESS PERIOD

    100 GHB CELLS
 
 SOLVING FOR HEAD 

 OUTPUT CONTROL FOR STRESS PERIOD    3   TIME STEP    1
    SAVE HEAD FOR ALL LAYERS
    SAVE DRAWDOWN FOR ALL LAYERS
    SAVE BUDGET
    PRINT HEAD FOR ALL LAYERS
    PRINT BUDGET
 UBDSV1 SAVING "         STORAGE" ON UNIT  53 AT TIME STEP  1, STRESS PERIOD   3
 UBDSV2 SAVING "   CONSTANT HEAD" ON UNIT  53 AT TIME STEP  1, STRESS PERIOD   3
 UBDSV1 SAVING "FLOW RIGHT FACE " ON UNIT  53 AT TIME STEP  1, STRESS PERIOD   3
 UBDSV1 SAVING "FLOW FRONT FACE " ON UNIT  53 AT TIME STEP  1, STRESS PERIOD   3
 UBDSV1 SAVING "FLOW LOWER FACE " ON UNIT  53 AT TIME STEP  1, STRESS PERIOD   3
1
              HEAD IN LAYER   1 AT END OF TIME STEP   1 IN STRESS PERIOD    3
  ---------------------------------------------------------------------------

            1           2           3           4           5           6           7           8           9          10
 ........................................................................................................................
   1   10.000       9.854       9.647       9.310       8.758       7.895       6.626       4.881       2.651      2.3827E-03
   2   10.000       9.854       9.647       9.310       8.758       7.895       6.626       4.881       2.651      2.3827E-03
   3   10.000       9.854       9.647       9.310       8.757       7.895       6.626       4.881       2.651      2.3827E-03
   4   10.000       9.854       9.647       9.308       8.746       7.893       6.626       4.881       2.651      2.3827E-03
   5   10.000       9.854       9.646       9.298       8.339       7.883       6.625       4.881       2.651      2.3827E-03
   6   10.000       9.854       9.647       9.308       8.746       7.893       6.626       4.881       2.651      2.3827E-03
   7   10.000       9.854       9.647       9.310       8.757       7.895       6.626       4.881       2.651      2.3827E-03
   8   10.000       9.854       9.647       9.310       8.758       7.895       6.626       4.881       2.651      2.3827E-03
   9   10.000       9.854       9.647       9.310       8.758       7.895       6.626       4.881       2.651      2.3827E-03
  10   10.000       9.854       9.647       9.310       8.758       7.895       6.626       4.881       2.651      2.3827E-03
1
              HEAD IN LAYER   2 AT END OF TIME STEP   1 IN STRESS PERIOD    3
  ---------------------------------------------------------------------------

            1           2           3           4           5           6           7           8           9          10
 ........................................................................................................................
   1   10.000       9.850       9.640       9.298       8.742       7.875       6.604       4.860       2.636      5.5238E-03
   2   10.000       9.850       9.640       9.298       8.742       7.875       6.604       4.860       2.636      5.5238E-03
   3   10.000       9.850       9.640       9.298       8.740       7.875       6.604       4.860       2.636      5.5238E-03
   4   10.000       9.850       9.639       9.295       8.721       7.872       6.603       4.860       2.636      5.5238E-03
   5   10.000       9.850       9.638       9.278       8.394       7.854       6.602       4.860       2.636      5.5238E-03
   6   10.000       9.850       9.639       9.295       8.721       7.872       6.603       4.860       2.636      5.5238E-03
   7   10.000       9.850       9.640       9.298       8.740       7.875       6.604       4.860       2.636      5.5238E-03
   8   10.000       9.850       9.640       9.298       8.742       7.875       6.604       4.860       2.636      5.5238E-03
   9   10.000       9.850       9.640       9.298       8.742       7.875       6.604       4.860       2.636      5.5238E-03
  10   10.000       9.850       9.640       9.298       8.742       7.875       6.604       4.860       2.636      5.5238E-03
1
              HEAD IN LAYER   3 AT END OF TIME STEP   1 IN STRESS PERIOD    3
  ---------------------------------------------------------------------------

            1           2           3           4           5           6           7           8           9          10
 ........................................................................................................................
   1   10.000       9.848       9.635       9.290       8.729       7.858       6.584       4.840       2.620      6.1743E-03
   2   10.000       9.848       9.635       9.290       8.729       7.858       6.584       4.840       2.620      6.1743E-03
   3   10.000       9.848       9.634       9.289       8.727       7.858       6.584       4.840       2.620      6.1743E-03
   4   10.000       9.848       9.634       9.285       8.703       7.854       6.584       4.840       2.620      6.1743E-03
   5   10.000       9.848       9.632       9.263       8.434       7.832       6.582       4.840       2.620      6.1743E-03
   6   10.000       9.848       9.634       9.285       8.703       7.854       6.584       4.840       2.620      6.1743E-03
   7   10.000       9.848       9.634       9.289       8.727       7.858       6.584       4.840       2.620      6.1743E-03
   8   10.000       9.848       9.635       9.290       8.729       7.858       6.584       4.840       2.620      6.1743E-03
   9   10.000       9.848       9.635       9.290       8.729       7.858       6.584       4.840       2.620      6.1743E-03
  10   10.000       9.848       9.635       9.290       8.729       7.859       6.584       4.840       2.620      6.1743E-03
1
              HEAD IN LAYER   4 AT END OF TIME STEP   1 IN STRESS PERIOD    3
  ---------------------------------------------------------------------------

            1           2           3           4           5           6           7           8           9          10
 ........................................................................................................................
   1   10.000       9.846       9.631       9.284       8.721       7.848       6.572       4.827       2.609      6.2361E-03
   2   10.000       9.846       9.631       9.284       8.721       7.847       6.572       4.827       2.609      6.2361E-03
   3   10.000       9.846       9.631       9.283       8.718       7.847       6.571       4.827       2.609      6.2361E-03
   4   10.000       9.846       9.630       9.278       8.691       7.842       6.571       4.827       2.609      6.2361E-03
   5   10.000       9.846       9.628       9.254       8.459       7.818       6.569       4.827       2.609      6.2361E-03
   6   10.000       9.846       9.630       9.278       8.691       7.842       6.571       4.827       2.609      6.2361E-03
   7   10.000       9.846       9.631       9.283       8.718       7.847       6.571       4.827       2.609      6.2361E-03
   8   10.000       9.846       9.631       9.284       8.721       7.847       6.572       4.827       2.609      6.2361E-03
   9   10.000       9.846       9.631       9.284       8.721       7.848       6.572       4.827       2.609      6.2361E-03
  10   10.000       9.846       9.631       9.284       8.721       7.848       6.572       4.827       2.609      6.2361E-03
1
              HEAD IN LAYER   5 AT END OF TIME STEP   1 IN STRESS PERIOD    3
  ---------------------------------------------------------------------------

            1           2           3           4           5           6           7           8           9          10
 ........................................................................................................................
   1   10.000       9.845       9.629       9.281       8.717       7.842       6.565       4.821       2.604      6.2343E-03
   2   10.000       9.845       9.629       9.281       8.716       7.842       6.565       4.821       2.604      6.2343E-03
   3   10.000       9.845       9.629       9.280       8.713       7.841       6.565       4.821       2.604      6.2343E-03
   4   10.000       9.845       9.628       9.275       8.685       7.836       6.564       4.821       2.604      6.2343E-03
   5   10.000       9.845       9.626       9.249       8.471       7.811       6.562       4.821       2.604      6.2343E-03
   6   10.000       9.845       9.628       9.275       8.685       7.836       6.564       4.821       2.604      6.2343E-03
   7   10.000       9.845       9.629       9.280       8.713       7.841       6.565       4.821       2.604      6.2343E-03
   8   10.000       9.845       9.629       9.281       8.716       7.842       6.565       4.821       2.604      6.2343E-03
   9   10.000       9.845       9.629       9.281       8.717       7.842       6.565       4.821       2.604      6.2343E-03
  10   10.000       9.845       9.629       9.281       8.717       7.842       6.565       4.821       2.604      6.2343E-03

 HEAD WILL BE SAVED ON UNIT   51 AT END OF TIME STEP    1, STRESS PERIOD    3

 DRAWDOWN WILL BE SAVED ON UNIT   52 AT END OF TIME STEP    1, STRESS PERIOD    3
1
  VOLUMETRIC BUDGET FOR ENTIRE MODEL AT END OF TIME STEP    1, STRESS PERIOD   3
  ------------------------------------------------------------------------------

     CUMULATIVE VOLUMES      L**3       RATES FOR THIS TIME STEP      L**3/T
     ------------------                 ------------------------

           IN:                                      IN:
           ---                                      ---
             STORAGE =      318959.5000               STORAGE =        1737.1300
       CONSTANT HEAD =           0.0000         CONSTANT HEAD =           0.0000
               WELLS =           0.0000                 WELLS =           0.0000
     HEAD DEP BOUNDS =        2489.0959       HEAD DEP BOUNDS =          90.4309

            TOTAL IN =      321448.5938              TOTAL IN =        1827.5609

          OUT:                                     OUT:
          ----                                     ----
             STORAGE =           0.0000               STORAGE =           0.0000
       CONSTANT HEAD =           0.0000         CONSTANT HEAD =           0.0000
               WELLS =         500.0000                 WELLS =         500.0000
     HEAD DEP BOUNDS =      320949.2500       HEAD DEP BOUNDS =        1327.5676

           TOTAL OUT =      321449.2500             TOTAL OUT =        1827.5676

            IN - OUT =          -0.6562              IN - OUT =      -6.7139E-03

 PERCENT DISCREPANCY =          -0.00     PERCENT DISCREPANCY =          -0.00






         TIME SUMMARY AT END OF TIME STEP    1 IN STRESS PERIOD    3
                    SECONDS     MINUTES      HOURS       DAYS        YEARS
                    -----------------------------------------------------------
   TIME STEP LENGTH  86400.      1440.0      24.000      1.0000     2.73785E-03
 STRESS PERIOD TIME  86400.      1440.0      24.000      1.0000     2.73785E-03
         TOTAL TIME 8.81280E+06 1.46880E+05  2448.0      102.00     0.27926    
1
 
 SOLVING FOR HEAD 

 OUTPUT CONTROL FOR STRESS PERIOD    3   TIME STEP    2
    SAVE HEAD FOR ALL LAYERS
    SAVE DRAWDOWN FOR ALL LAYERS
    SAVE BUDGET
    PRINT HEAD FOR ALL LAYERS
    PRINT BUDGET
 UBDSV1 SAVING "         STORAGE" ON UNIT  53 AT TIME STEP  2, STRESS PERIOD   3
 UBDSV2 SAVING "   CONSTANT HEAD" ON UNIT  53 AT TIME STEP  2, STRESS PERIOD   3
 UBDSV1 SAVING "FLOW RIGHT FACE " ON UNIT  53 AT TIME STEP  2, STRESS PERIOD   3
 UBDSV1 SAVING "FLOW FRONT FACE " ON UNIT  53 AT TIME STEP  2, STRESS PERIOD   3
 UBDSV1 SAVING "FLOW LOWER FACE " ON UNIT  53 AT TIME STEP  2, STRESS PERIOD   3
1
              HEAD IN LAYER   1 AT END OF TIME STEP   2 IN STRESS PERIOD    3
  ---------------------------------------------------------------------------

            1           2           3           4           5           6           7           8           9          10
 ........................................................................................................................
   1   10.000       9.850       9.640       9.298       8.741       7.874       6.603       4.860       2.638      2.3700E-03
   2   10.000       9.850       9.640       9.298       8.741       7.874       6.603       4.860       2.638      2.3700E-03
   3   10.000       9.850       9.639       9.297       8.738       7.873       6.603       4.860       2.638      2.3700E-03
   4   10.000       9.850       9.639       9.292       8.708       7.869       6.602       4.860       2.638      2.3700E-03
   5   10.000       9.850       9.637       9.265       7.961       7.841       6.600       4.860       2.638      2.3699E-03
   6   10.000       9.850       9.639       9.292       8.708       7.869       6.602       4.860       2.638      2.3700E-03
   7   10.000       9.850       9.639       9.297       8.738       7.873       6.603       4.860       2.638      2.3700E-03
   8   10.000       9.850       9.640       9.298       8.741       7.874       6.603       4.860       2.638      2.3700E-03
   9   10.000       9.850       9.640       9.298       8.741       7.874       6.603       4.860       2.638      2.3700E-03
  10   10.000       9.850       9.640       9.298       8.741       7.874       6.603       4.860       2.638      2.3700E-03
1
              HEAD IN LAYER   2 AT END OF TIME STEP   2 IN STRESS PERIOD    3
  ---------------------------------------------------------------------------

            1           2           3           4           5           6           7           8           9          10
 ........................................................................................................................
   1   10.000       9.847       9.632       9.286       8.725       7.854       6.581       4.840       2.623      5.4968E-03
   2   10.000       9.847       9.632       9.286       8.725       7.854       6.581       4.840       2.623      5.4968E-03
   3   10.000       9.847       9.632       9.285       8.720       7.853       6.581       4.840       2.623      5.4968E-03
   4   10.000       9.847       9.631       9.277       8.675       7.845       6.580       4.840       2.623      5.4968E-03
   5   10.000       9.846       9.628       9.236       8.064       7.805       6.576       4.839       2.623      5.4967E-03
   6   10.000       9.847       9.631       9.277       8.675       7.845       6.580       4.840       2.623      5.4968E-03
   7   10.000       9.847       9.632       9.285       8.720       7.853       6.581       4.840       2.623      5.4968E-03
   8   10.000       9.847       9.632       9.286       8.725       7.854       6.581       4.840       2.623      5.4968E-03
   9   10.000       9.847       9.632       9.286       8.725       7.854       6.581       4.840       2.623      5.4968E-03
  10   10.000       9.847       9.632       9.286       8.725       7.854       6.581       4.840       2.623      5.4968E-03
1
              HEAD IN LAYER   3 AT END OF TIME STEP   2 IN STRESS PERIOD    3
  ---------------------------------------------------------------------------

            1           2           3           4           5           6           7           8           9          10
 ........................................................................................................................
   1   10.000       9.844       9.627       9.278       8.712       7.838       6.562       4.820       2.607      6.1446E-03
   2   10.000       9.844       9.627       9.277       8.712       7.837       6.562       4.820       2.607      6.1446E-03
   3   10.000       9.844       9.627       9.276       8.706       7.836       6.562       4.820       2.607      6.1446E-03
   4   10.000       9.844       9.625       9.265       8.651       7.826       6.560       4.820       2.607      6.1446E-03
   5   10.000       9.844       9.621       9.216       8.142       7.777       6.556       4.820       2.607      6.1445E-03
   6   10.000       9.844       9.625       9.265       8.651       7.826       6.560       4.820       2.607      6.1446E-03
   7   10.000       9.844       9.627       9.276       8.706       7.836       6.562       4.820       2.607      6.1446E-03
   8   10.000       9.844       9.627       9.277       8.712       7.837       6.562       4.820       2.607      6.1446E-03
   9   10.000       9.844       9.627       9.278       8.712       7.838       6.562       4.820       2.607      6.1446E-03
  10   10.000       9.844       9.627       9.278       8.712       7.838       6.562       4.820       2.607      6.1446E-03
1
              HEAD IN LAYER   4 AT END OF TIME STEP   2 IN STRESS PERIOD    3
  ---------------------------------------------------------------------------

            1           2           3           4           5           6           7           8           9          10
 ........................................................................................................................
   1   10.000       9.843       9.623       9.272       8.704       7.827       6.549       4.807       2.597      6.2064E-03
   2   10.000       9.843       9.623       9.271       8.703       7.826       6.549       4.807       2.597      6.2064E-03
   3   10.000       9.843       9.623       9.269       8.697       7.825       6.549       4.807       2.597      6.2063E-03
   4   10.000       9.842       9.621       9.257       8.637       7.812       6.547       4.807       2.597      6.2063E-03
   5   10.000       9.842       9.616       9.204       8.190       7.760       6.542       4.807       2.596      6.2062E-03
   6   10.000       9.842       9.621       9.257       8.637       7.812       6.547       4.807       2.597      6.2063E-03
   7   10.000       9.843       9.623       9.269       8.697       7.825       6.549       4.807       2.597      6.2063E-03
   8   10.000       9.843       9.623       9.271       8.703       7.826       6.549       4.807       2.597      6.2064E-03
   9   10.000       9.843       9.623       9.272       8.704       7.827       6.549       4.807       2.597      6.2064E-03
  10   10.000       9.843       9.623       9.272       8.704       7.827       6.549       4.807       2.597      6.2064E-03
1
              HEAD IN LAYER   5 AT END OF TIME STEP   2 IN STRESS PERIOD    3
  ---------------------------------------------------------------------------

            1           2           3           4           5           6           7           8           9          10
 ........................................................................................................................
   1   10.000       9.842       9.622       9.269       8.700       7.821       6.543       4.801       2.591      6.2047E-03
   2   10.000       9.842       9.622       9.268       8.699       7.821       6.543       4.801       2.591      6.2047E-03
   3   10.000       9.842       9.621       9.266       8.692       7.819       6.542       4.801       2.591      6.2046E-03
   4   10.000       9.841       9.619       9.253       8.629       7.806       6.540       4.801       2.591      6.2046E-03
   5   10.000       9.841       9.613       9.198       8.213       7.751       6.535       4.800       2.591      6.2045E-03
   6   10.000       9.841       9.619       9.253       8.629       7.806       6.540       4.801       2.591      6.2046E-03
   7   10.000       9.842       9.621       9.266       8.692       7.819       6.542       4.801       2.591      6.2046E-03
   8   10.000       9.842       9.622       9.268       8.699       7.821       6.543       4.801       2.591      6.2047E-03
   9   10.000       9.842       9.622       9.269       8.700       7.821       6.543       4.801       2.591      6.2047E-03
  10   10.000       9.842       9.622       9.269       8.700       7.821       6.543       4.801       2.591      6.2047E-03

 HEAD WILL BE SAVED ON UNIT   51 AT END OF TIME STEP    2, STRESS PERIOD    3

 DRAWDOWN WILL BE SAVED ON UNIT   52 AT END OF TIME STEP    2, STRESS PERIOD    3
1
  VOLUMETRIC BUDGET FOR ENTIRE MODEL AT END OF TIME STEP    2, STRESS PERIOD   3
  ------------------------------------------------------------------------------

     CUMULATIVE VOLUMES      L**3       RATES FOR THIS TIME STEP      L**3/T
     ------------------                 ------------------------

           IN:                                      IN:
           ---                                      ---
             STORAGE =      320688.0312               STORAGE =        1728.5225
       CONSTANT HEAD =           0.0000         CONSTANT HEAD =           0.0000
               WELLS =           0.0000                 WELLS =           0.0000
     HEAD DEP BOUNDS =        2581.6921       HEAD DEP BOUNDS =          92.5962

            TOTAL IN =      323269.7188              TOTAL IN =        1821.1187

          OUT:                                     OUT:
          ----                                     ----
             STORAGE =           0.0000               STORAGE =           0.0000
       CONSTANT HEAD =           0.0000         CONSTANT HEAD =           0.0000
               WELLS =        1000.0000                 WELLS =         500.0000
     HEAD DEP BOUNDS =      322270.3750       HEAD DEP BOUNDS =        1321.1145

           TOTAL OUT =      323270.3750             TOTAL OUT =        1821.1145

            IN - OUT =          -0.6562              IN - OUT =       4.1504E-03

 PERCENT DISCREPANCY =          -0.00     PERCENT DISCREPANCY =           0.00






         TIME SUMMARY AT END OF TIME STEP    2 IN STRESS PERIOD    3
                    SECONDS     MINUTES      HOURS       DAYS        YEARS
                    -----------------------------------------------------------
   TIME STEP LENGTH  86400.      1440.0      24.000      1.0000     2.73785E-03
 STRESS PERIOD TIME 1.72800E+05  2880.0      48.000      2.0000     5.47570E-03
         TOTAL TIME 8.89920E+06 1.48320E+05  2472.0      103.00     0.28200    
1
 
 SOLVING FOR HEAD 

 OUTPUT CONTROL FOR STRESS PERIOD    3   TIME STEP    3
    SAVE HEAD FOR ALL LAYERS
    SAVE DRAWDOWN FOR ALL LAYERS
    SAVE BUDGET
    PRINT HEAD FOR ALL LAYERS
    PRINT BUDGET
 UBDSV1 SAVING "         STORAGE" ON UNIT  53 AT TIME STEP  3, STRESS PERIOD   3
 UBDSV2 SAVING "   CONSTANT HEAD" ON UNIT  53 AT TIME STEP  3, STRESS PERIOD   3
 UBDSV1 SAVING "FLOW RIGHT FACE " ON UNIT  53 AT TIME STEP  3, STRESS PERIOD   3
 UBDSV1 SAVING "FLOW FRONT FACE " ON UNIT  53 AT TIME STEP  3, STRESS PERIOD   3
 UBDSV1 SAVING "FLOW LOWER FACE " ON UNIT  53 AT TIME STEP  3, STRESS PERIOD   3
1
              HEAD IN LAYER   1 AT END OF TIME STEP   3 IN STRESS PERIOD    3
  ---------------------------------------------------------------------------

            1           2           3           4           5           6           7           8           9          10
 ........................................................................................................................
   1   10.000       9.847       9.632       9.286       8.724       7.853       6.580       4.840       2.625      2.3576E-03
   2   10.000       9.847       9.632       9.286       8.724       7.853       6.580       4.840       2.625      2.3576E-03
   3   10.000       9.847       9.632       9.284       8.718       7.851       6.580       4.840       2.625      2.3576E-03
   4   10.000       9.846       9.630       9.274       8.662       7.842       6.578       4.840       2.625      2.3576E-03
   5   10.000       9.846       9.626       9.224       7.631       7.791       6.574       4.839       2.625      2.3576E-03
   6   10.000       9.846       9.630       9.274       8.662       7.842       6.578       4.840       2.625      2.3576E-03
   7   10.000       9.847       9.632       9.284       8.718       7.851       6.580       4.840       2.625      2.3576E-03
   8   10.000       9.847       9.632       9.286       8.724       7.853       6.580       4.840       2.625      2.3576E-03
   9   10.000       9.847       9.632       9.286       8.724       7.853       6.580       4.840       2.625      2.3576E-03
  10   10.000       9.847       9.632       9.286       8.724       7.853       6.580       4.840       2.625      2.3576E-03
1
              HEAD IN LAYER   2 AT END OF TIME STEP   3 IN STRESS PERIOD    3
  ---------------------------------------------------------------------------

            1           2           3           4           5           6           7           8           9          10
 ........................................................................................................................
   1   10.000       9.843       9.625       9.274       8.708       7.833       6.559       4.820       2.610      5.4702E-03
   2   10.000       9.843       9.625       9.274       8.707       7.833       6.559       4.820       2.610      5.4702E-03
   3   10.000       9.843       9.624       9.272       8.699       7.831       6.558       4.820       2.610      5.4702E-03
   4   10.000       9.843       9.622       9.257       8.624       7.816       6.556       4.819       2.610      5.4701E-03
   5   10.000       9.842       9.616       9.190       7.773       7.749       6.550       4.819       2.610      5.4700E-03
   6   10.000       9.843       9.622       9.257       8.624       7.816       6.556       4.819       2.610      5.4701E-03
   7   10.000       9.843       9.624       9.272       8.699       7.831       6.558       4.820       2.610      5.4702E-03
   8   10.000       9.843       9.625       9.274       8.707       7.833       6.559       4.820       2.610      5.4702E-03
   9   10.000       9.843       9.625       9.274       8.708       7.833       6.559       4.820       2.610      5.4702E-03
  10   10.000       9.843       9.625       9.274       8.708       7.833       6.559       4.820       2.610      5.4702E-03
1
              HEAD IN LAYER   3 AT END OF TIME STEP   3 IN STRESS PERIOD    3
  ---------------------------------------------------------------------------

            1           2           3           4           5           6           7           8           9          10
 ........................................................................................................................
   1   10.000       9.841       9.620       9.266       8.696       7.817       6.540       4.800       2.595      6.1154E-03
   2   10.000       9.841       9.619       9.265       8.694       7.817       6.540       4.800       2.595      6.1153E-03
   3   10.000       9.841       9.619       9.262       8.684       7.813       6.539       4.800       2.595      6.1153E-03
   4   10.000       9.840       9.616       9.243       8.596       7.795       6.536       4.800       2.595      6.1152E-03
   5   10.000       9.839       9.608       9.166       7.881       7.718       6.528       4.799       2.595      6.1150E-03
   6   10.000       9.840       9.616       9.243       8.596       7.795       6.536       4.800       2.595      6.1152E-03
   7   10.000       9.841       9.619       9.262       8.684       7.813       6.539       4.800       2.595      6.1153E-03
   8   10.000       9.841       9.619       9.265       8.694       7.817       6.540       4.800       2.595      6.1153E-03
   9   10.000       9.841       9.620       9.266       8.696       7.817       6.540       4.800       2.595      6.1154E-03
  10   10.000       9.841       9.620       9.266       8.696       7.817       6.540       4.800       2.595      6.1154E-03
1
              HEAD IN LAYER   4 AT END OF TIME STEP   3 IN STRESS PERIOD    3
  ---------------------------------------------------------------------------

            1           2           3           4           5           6           7           8           9          10
 ........................................................................................................................
   1   10.000       9.839       9.616       9.260       8.687       7.806       6.527       4.788       2.584      6.1770E-03
   2   10.000       9.839       9.616       9.259       8.686       7.806       6.527       4.788       2.584      6.1770E-03
   3   10.000       9.839       9.615       9.255       8.674       7.802       6.526       4.787       2.584      6.1769E-03
   4   10.000       9.838       9.612       9.234       8.579       7.781       6.523       4.787       2.584      6.1768E-03
   5   10.000       9.837       9.602       9.151       7.950       7.698       6.514       4.786       2.584      6.1766E-03
   6   10.000       9.838       9.612       9.234       8.579       7.781       6.523       4.787       2.584      6.1768E-03
   7   10.000       9.839       9.615       9.255       8.674       7.802       6.526       4.787       2.584      6.1769E-03
   8   10.000       9.839       9.616       9.259       8.686       7.806       6.527       4.788       2.584      6.1770E-03
   9   10.000       9.839       9.616       9.260       8.687       7.806       6.527       4.788       2.584      6.1770E-03
  10   10.000       9.839       9.616       9.260       8.687       7.806       6.527       4.788       2.584      6.1770E-03
1
              HEAD IN LAYER   5 AT END OF TIME STEP   3 IN STRESS PERIOD    3
  ---------------------------------------------------------------------------

            1           2           3           4           5           6           7           8           9          10
 ........................................................................................................................
   1   10.000       9.838       9.614       9.257       8.683       7.801       6.521       4.781       2.579      6.1754E-03
   2   10.000       9.838       9.614       9.256       8.681       7.800       6.521       4.781       2.579      6.1754E-03
   3   10.000       9.838       9.613       9.252       8.669       7.796       6.520       4.781       2.579      6.1753E-03
   4   10.000       9.838       9.609       9.230       8.571       7.774       6.516       4.781       2.579      6.1752E-03
   5   10.000       9.837       9.600       9.145       7.982       7.689       6.507       4.780       2.579      6.1750E-03
   6   10.000       9.838       9.609       9.230       8.571       7.774       6.516       4.781       2.579      6.1752E-03
   7   10.000       9.838       9.613       9.252       8.669       7.796       6.520       4.781       2.579      6.1753E-03
   8   10.000       9.838       9.614       9.256       8.681       7.800       6.521       4.781       2.579      6.1754E-03
   9   10.000       9.838       9.614       9.257       8.683       7.801       6.521       4.781       2.579      6.1754E-03
  10   10.000       9.838       9.614       9.257       8.683       7.801       6.521       4.781       2.579      6.1754E-03

 HEAD WILL BE SAVED ON UNIT   51 AT END OF TIME STEP    3, STRESS PERIOD    3

 DRAWDOWN WILL BE SAVED ON UNIT   52 AT END OF TIME STEP    3, STRESS PERIOD    3
1
  VOLUMETRIC BUDGET FOR ENTIRE MODEL AT END OF TIME STEP    3, STRESS PERIOD   3
  ------------------------------------------------------------------------------

     CUMULATIVE VOLUMES      L**3       RATES FOR THIS TIME STEP      L**3/T
     ------------------                 ------------------------

           IN:                                      IN:
           ---                                      ---
             STORAGE =      322408.0000               STORAGE =        1719.9735
       CONSTANT HEAD =           0.0000         CONSTANT HEAD =           0.0000
               WELLS =           0.0000                 WELLS =           0.0000
     HEAD DEP BOUNDS =        2676.4956       HEAD DEP BOUNDS =          94.8035

            TOTAL IN =      325084.5000              TOTAL IN =        1814.7770

          OUT:                                     OUT:
          ----                                     ----
             STORAGE =           0.0000               STORAGE =           0.0000
       CONSTANT HEAD =           0.0000         CONSTANT HEAD =           0.0000
               WELLS =        1500.0000                 WELLS =         500.0000
     HEAD DEP BOUNDS =      323585.1250       HEAD DEP BOUNDS =        1314.7646

           TOTAL OUT =      325085.1250             TOTAL OUT =        1814.7646

            IN - OUT =          -0.6250              IN - OUT =       1.2329E-02

 PERCENT DISCREPANCY =          -0.00     PERCENT DISCREPANCY =           0.00






         TIME SUMMARY AT END OF TIME STEP    3 IN STRESS PERIOD    3
                    SECONDS     MINUTES      HOURS       DAYS        YEARS
                    -----------------------------------------------------------
   TIME STEP LENGTH  86400.      1440.0      24.000      1.0000     2.73785E-03
 STRESS PERIOD TIME 2.59200E+05  4320.0      72.000      3.0000     8.21355E-03
         TOTAL TIME 8.98560E+06 1.49760E+05  2496.0      104.00     0.28474    
1
 
 SOLVING FOR HEAD 

 OUTPUT CONTROL FOR STRESS PERIOD    3   TIME STEP    4
    SAVE HEAD FOR ALL LAYERS
    SAVE DRAWDOWN FOR ALL LAYERS
    SAVE BUDGET
    PRINT HEAD FOR ALL LAYERS
    PRINT BUDGET
 UBDSV1 SAVING "         STORAGE" ON UNIT  53 AT TIME STEP  4, STRESS PERIOD   3
 UBDSV2 SAVING "   CONSTANT HEAD" ON UNIT  53 AT TIME STEP  4, STRESS PERIOD   3
 UBDSV1 SAVING "FLOW RIGHT FACE " ON UNIT  53 AT TIME STEP  4, STRESS PERIOD   3
 UBDSV1 SAVING "FLOW FRONT FACE " ON UNIT  53 AT TIME STEP  4, STRESS PERIOD   3
 UBDSV1 SAVING "FLOW LOWER FACE " ON UNIT  53 AT TIME STEP  4, STRESS PERIOD   3
1
              HEAD IN LAYER   1 AT END OF TIME STEP   4 IN STRESS PERIOD    3
  ---------------------------------------------------------------------------

            1           2           3           4           5           6           7           8           9          10
 ........................................................................................................................
   1   10.000       9.843       9.625       9.274       8.707       7.832       6.558       4.820       2.612      2.3453E-03
   2   10.000       9.843       9.624       9.273       8.706       7.832       6.558       4.820       2.612      2.3453E-03
   3   10.000       9.843       9.624       9.270       8.697       7.829       6.557       4.820       2.612      2.3453E-03
   4   10.000       9.843       9.621       9.254       8.612       7.813       6.555       4.819       2.612      2.3453E-03
   5   10.000       9.842       9.614       9.179       7.341       7.736       6.548       4.818       2.612      2.3452E-03
   6   10.000       9.843       9.621       9.254       8.612       7.813       6.555       4.819       2.612      2.3453E-03
   7   10.000       9.843       9.624       9.270       8.697       7.829       6.557       4.820       2.612      2.3453E-03
   8   10.000       9.843       9.624       9.273       8.706       7.832       6.558       4.820       2.612      2.3453E-03
   9   10.000       9.843       9.625       9.274       8.707       7.832       6.558       4.820       2.612      2.3453E-03
  10   10.000       9.843       9.625       9.274       8.708       7.832       6.558       4.820       2.612      2.3453E-03
1
              HEAD IN LAYER   2 AT END OF TIME STEP   4 IN STRESS PERIOD    3
  ---------------------------------------------------------------------------

            1           2           3           4           5           6           7           8           9          10
 ........................................................................................................................
   1   10.000       9.840       9.617       9.262       8.691       7.813       6.536       4.800       2.598      5.4440E-03
   2   10.000       9.840       9.617       9.262       8.690       7.812       6.536       4.800       2.598      5.4440E-03
   3   10.000       9.840       9.616       9.257       8.677       7.808       6.535       4.800       2.598      5.4439E-03
   4   10.000       9.839       9.613       9.235       8.570       7.786       6.532       4.799       2.598      5.4438E-03
   5   10.000       9.838       9.603       9.140       7.515       7.691       6.522       4.798       2.598      5.4436E-03
   6   10.000       9.839       9.613       9.235       8.570       7.786       6.532       4.799       2.598      5.4438E-03
   7   10.000       9.840       9.616       9.257       8.677       7.808       6.535       4.800       2.598      5.4439E-03
   8   10.000       9.840       9.617       9.262       8.690       7.812       6.536       4.800       2.598      5.4440E-03
   9   10.000       9.840       9.617       9.262       8.691       7.813       6.536       4.800       2.598      5.4440E-03
  10   10.000       9.840       9.617       9.262       8.692       7.813       6.536       4.800       2.598      5.4440E-03
1
              HEAD IN LAYER   3 AT END OF TIME STEP   4 IN STRESS PERIOD    3
  ---------------------------------------------------------------------------

            1           2           3           4           5           6           7           8           9          10
 ........................................................................................................................
   1   10.000       9.837       9.612       9.253       8.679       7.796       6.518       4.781       2.582      6.0865E-03
   2   10.000       9.837       9.612       9.253       8.677       7.796       6.517       4.781       2.582      6.0865E-03
   3   10.000       9.837       9.611       9.247       8.661       7.790       6.516       4.780       2.582      6.0864E-03
   4   10.000       9.836       9.606       9.220       8.539       7.763       6.512       4.780       2.582      6.0862E-03
   5   10.000       9.835       9.594       9.114       7.650       7.657       6.500       4.779       2.582      6.0859E-03
   6   10.000       9.836       9.606       9.220       8.539       7.763       6.512       4.780       2.582      6.0862E-03
   7   10.000       9.837       9.611       9.247       8.661       7.790       6.516       4.780       2.582      6.0864E-03
   8   10.000       9.837       9.612       9.253       8.677       7.796       6.517       4.781       2.582      6.0865E-03
   9   10.000       9.837       9.612       9.253       8.679       7.796       6.518       4.781       2.582      6.0865E-03
  10   10.000       9.837       9.612       9.254       8.679       7.797       6.518       4.781       2.582      6.0865E-03
1
              HEAD IN LAYER   4 AT END OF TIME STEP   4 IN STRESS PERIOD    3
  ---------------------------------------------------------------------------

            1           2           3           4           5           6           7           8           9          10
 ........................................................................................................................
   1   10.000       9.835       9.608       9.248       8.670       7.786       6.505       4.768       2.572      6.1480E-03
   2   10.000       9.835       9.608       9.247       8.668       7.785       6.505       4.768       2.572      6.1480E-03
   3   10.000       9.835       9.607       9.241       8.651       7.779       6.504       4.768       2.572      6.1479E-03
   4   10.000       9.834       9.601       9.209       8.521       7.748       6.498       4.767       2.572      6.1477E-03
   5   10.000       9.833       9.588       9.097       7.735       7.636       6.485       4.766       2.572      6.1473E-03
   6   10.000       9.834       9.601       9.209       8.521       7.748       6.498       4.767       2.572      6.1477E-03
   7   10.000       9.835       9.607       9.241       8.651       7.779       6.504       4.768       2.572      6.1479E-03
   8   10.000       9.835       9.608       9.247       8.668       7.785       6.505       4.768       2.572      6.1480E-03
   9   10.000       9.835       9.608       9.248       8.670       7.786       6.505       4.768       2.572      6.1480E-03
  10   10.000       9.836       9.608       9.248       8.671       7.786       6.505       4.768       2.572      6.1480E-03
1
              HEAD IN LAYER   5 AT END OF TIME STEP   4 IN STRESS PERIOD    3
  ---------------------------------------------------------------------------

            1           2           3           4           5           6           7           8           9          10
 ........................................................................................................................
   1   10.000       9.835       9.607       9.245       8.666       7.780       6.499       4.762       2.567      6.1466E-03
   2   10.000       9.835       9.606       9.244       8.664       7.779       6.499       4.762       2.567      6.1465E-03
   3   10.000       9.834       9.605       9.237       8.645       7.773       6.497       4.761       2.567      6.1464E-03
   4   10.000       9.833       9.599       9.204       8.512       7.740       6.492       4.761       2.567      6.1462E-03
   5   10.000       9.832       9.585       9.090       7.776       7.626       6.478       4.759       2.567      6.1458E-03
   6   10.000       9.833       9.599       9.204       8.512       7.740       6.492       4.761       2.567      6.1462E-03
   7   10.000       9.834       9.605       9.237       8.645       7.773       6.497       4.761       2.567      6.1464E-03
   8   10.000       9.835       9.606       9.244       8.664       7.779       6.499       4.762       2.567      6.1465E-03
   9   10.000       9.835       9.607       9.245       8.666       7.780       6.499       4.762       2.567      6.1466E-03
  10   10.000       9.835       9.607       9.245       8.666       7.780       6.499       4.762       2.567      6.1466E-03

 HEAD WILL BE SAVED ON UNIT   51 AT END OF TIME STEP    4, STRESS PERIOD    3

 DRAWDOWN WILL BE SAVED ON UNIT   52 AT END OF TIME STEP    4, STRESS PERIOD    3
1
  VOLUMETRIC BUDGET FOR ENTIRE MODEL AT END OF TIME STEP    4, STRESS PERIOD   3
  ------------------------------------------------------------------------------

     CUMULATIVE VOLUMES      L**3       RATES FOR THIS TIME STEP      L**3/T
     ------------------                 ------------------------

           IN:                                      IN:
           ---                                      ---
             STORAGE =      324119.4375               STORAGE =        1711.4438
       CONSTANT HEAD =           0.0000         CONSTANT HEAD =           0.0000
               WELLS =           0.0000                 WELLS =           0.0000
     HEAD DEP BOUNDS =        2773.5518       HEAD DEP BOUNDS =          97.0562

            TOTAL IN =      326893.0000              TOTAL IN =        1808.5000

          OUT:                                     OUT:
          ----                                     ----
             STORAGE =           0.0000               STORAGE =           0.0000
       CONSTANT HEAD =           0.0000         CONSTANT HEAD =           0.0000
               WELLS =        2000.0000                 WELLS =         500.0000
     HEAD DEP BOUNDS =      324893.6250       HEAD DEP BOUNDS =        1308.4897

           TOTAL OUT =      326893.6250             TOTAL OUT =        1808.4897

            IN - OUT =          -0.6250              IN - OUT =       1.0254E-02

 PERCENT DISCREPANCY =          -0.00     PERCENT DISCREPANCY =           0.00






         TIME SUMMARY AT END OF TIME STEP    4 IN STRESS PERIOD    3
                    SECONDS     MINUTES      HOURS       DAYS        YEARS
                    -----------------------------------------------------------
   TIME STEP LENGTH  86400.      1440.0      24.000      1.0000     2.73785E-03
 STRESS PERIOD TIME 3.45600E+05  5760.0      96.000      4.0000     1.09514E-02
         TOTAL TIME 9.07200E+06 1.51200E+05  2520.0      105.00     0.28747    
1
 
 SOLVING FOR HEAD 

 OUTPUT CONTROL FOR STRESS PERIOD    3   TIME STEP    5
    SAVE HEAD FOR ALL LAYERS
    SAVE DRAWDOWN FOR ALL LAYERS
    SAVE BUDGET
    PRINT HEAD FOR ALL LAYERS
    PRINT BUDGET
 UBDSV1 SAVING "         STORAGE" ON UNIT  53 AT TIME STEP  5, STRESS PERIOD   3
 UBDSV2 SAVING "   CONSTANT HEAD" ON UNIT  53 AT TIME STEP  5, STRESS PERIOD   3
 UBDSV1 SAVING "FLOW RIGHT FACE " ON UNIT  53 AT TIME STEP  5, STRESS PERIOD   3
 UBDSV1 SAVING "FLOW FRONT FACE " ON UNIT  53 AT TIME STEP  5, STRESS PERIOD   3
 UBDSV1 SAVING "FLOW LOWER FACE " ON UNIT  53 AT TIME STEP  5, STRESS PERIOD   3
1
              HEAD IN LAYER   1 AT END OF TIME STEP   5 IN STRESS PERIOD    3
  ---------------------------------------------------------------------------

            1           2           3           4           5           6           7           8           9          10
 ........................................................................................................................
   1   10.000       9.840       9.617       9.262       8.691       7.812       6.536       4.800       2.600      2.3332E-03
   2   10.000       9.840       9.617       9.261       8.689       7.811       6.535       4.800       2.600      2.3332E-03
   3   10.000       9.839       9.616       9.256       8.675       7.806       6.534       4.800       2.600      2.3331E-03
   4   10.000       9.839       9.612       9.232       8.558       7.782       6.530       4.799       2.600      2.3331E-03
   5   10.000       9.838       9.601       9.130       7.085       7.678       6.520       4.798       2.600      2.3329E-03
   6   10.000       9.839       9.612       9.232       8.558       7.782       6.530       4.799       2.600      2.3331E-03
   7   10.000       9.839       9.616       9.256       8.675       7.806       6.534       4.800       2.600      2.3331E-03
   8   10.000       9.840       9.617       9.261       8.689       7.811       6.535       4.800       2.600      2.3332E-03
   9   10.000       9.840       9.617       9.262       8.691       7.812       6.536       4.800       2.600      2.3332E-03
  10   10.000       9.840       9.617       9.262       8.691       7.812       6.536       4.800       2.600      2.3332E-03
1
              HEAD IN LAYER   2 AT END OF TIME STEP   5 IN STRESS PERIOD    3
  ---------------------------------------------------------------------------

            1           2           3           4           5           6           7           8           9          10
 ........................................................................................................................
   1   10.000       9.836       9.610       9.250       8.675       7.792       6.514       4.780       2.586      5.4181E-03
   2   10.000       9.836       9.610       9.249       8.672       7.791       6.514       4.780       2.586      5.4181E-03
   3   10.000       9.836       9.608       9.243       8.654       7.785       6.513       4.780       2.586      5.4180E-03
   4   10.000       9.835       9.602       9.211       8.513       7.753       6.507       4.779       2.586      5.4178E-03
   5   10.000       9.833       9.589       9.089       7.285       7.631       6.494       4.777       2.585      5.4175E-03
   6   10.000       9.835       9.602       9.211       8.513       7.753       6.507       4.779       2.586      5.4178E-03
   7   10.000       9.836       9.608       9.243       8.654       7.785       6.513       4.780       2.586      5.4180E-03
   8   10.000       9.836       9.610       9.249       8.672       7.791       6.514       4.780       2.586      5.4181E-03
   9   10.000       9.836       9.610       9.250       8.675       7.792       6.514       4.780       2.586      5.4181E-03
  10   10.000       9.836       9.610       9.250       8.675       7.792       6.514       4.780       2.586      5.4181E-03
1
              HEAD IN LAYER   3 AT END OF TIME STEP   5 IN STRESS PERIOD    3
  ---------------------------------------------------------------------------

            1           2           3           4           5           6           7           8           9          10
 ........................................................................................................................
   1   10.000       9.834       9.604       9.241       8.662       7.776       6.496       4.761       2.570      6.0580E-03
   2   10.000       9.834       9.604       9.240       8.659       7.775       6.495       4.761       2.570      6.0580E-03
   3   10.000       9.833       9.602       9.232       8.637       7.767       6.494       4.761       2.570      6.0579E-03
   4   10.000       9.832       9.595       9.194       8.481       7.729       6.487       4.760       2.570      6.0575E-03
   5   10.000       9.830       9.579       9.060       7.443       7.595       6.471       4.758       2.570      6.0571E-03
   6   10.000       9.832       9.595       9.194       8.481       7.729       6.487       4.760       2.570      6.0575E-03
   7   10.000       9.833       9.602       9.232       8.637       7.767       6.494       4.761       2.570      6.0579E-03
   8   10.000       9.834       9.604       9.240       8.659       7.775       6.495       4.761       2.570      6.0580E-03
   9   10.000       9.834       9.604       9.241       8.662       7.776       6.496       4.761       2.570      6.0580E-03
  10   10.000       9.834       9.604       9.242       8.662       7.776       6.496       4.761       2.570      6.0580E-03
1
              HEAD IN LAYER   4 AT END OF TIME STEP   5 IN STRESS PERIOD    3
  ---------------------------------------------------------------------------

            1           2           3           4           5           6           7           8           9          10
 ........................................................................................................................
   1   10.000       9.832       9.601       9.235       8.654       7.765       6.483       4.749       2.560      6.1195E-03
   2   10.000       9.832       9.600       9.234       8.650       7.764       6.483       4.749       2.560      6.1194E-03
   3   10.000       9.831       9.598       9.225       8.626       7.755       6.481       4.748       2.560      6.1193E-03
   4   10.000       9.830       9.590       9.183       8.461       7.713       6.473       4.747       2.560      6.1189E-03
   5   10.000       9.828       9.573       9.043       7.542       7.573       6.456       4.745       2.560      6.1184E-03
   6   10.000       9.830       9.590       9.183       8.461       7.713       6.473       4.747       2.560      6.1189E-03
   7   10.000       9.831       9.598       9.225       8.626       7.755       6.481       4.748       2.560      6.1193E-03
   8   10.000       9.832       9.600       9.234       8.650       7.764       6.483       4.749       2.560      6.1194E-03
   9   10.000       9.832       9.601       9.235       8.654       7.765       6.483       4.749       2.560      6.1195E-03
  10   10.000       9.832       9.601       9.236       8.654       7.765       6.483       4.749       2.560      6.1195E-03
1
              HEAD IN LAYER   5 AT END OF TIME STEP   5 IN STRESS PERIOD    3
  ---------------------------------------------------------------------------

            1           2           3           4           5           6           7           8           9          10
 ........................................................................................................................
   1   10.000       9.831       9.599       9.232       8.649       7.760       6.477       4.743       2.555      6.1181E-03
   2   10.000       9.831       9.598       9.231       8.646       7.758       6.477       4.742       2.555      6.1181E-03
   3   10.000       9.830       9.596       9.222       8.621       7.749       6.475       4.742       2.555      6.1179E-03
   4   10.000       9.829       9.588       9.177       8.452       7.705       6.466       4.741       2.555      6.1175E-03
   5   10.000       9.827       9.569       9.035       7.590       7.562       6.448       4.739       2.555      6.1169E-03
   6   10.000       9.829       9.588       9.177       8.452       7.705       6.466       4.741       2.555      6.1175E-03
   7   10.000       9.830       9.596       9.222       8.621       7.749       6.475       4.742       2.555      6.1179E-03
   8   10.000       9.831       9.598       9.231       8.646       7.758       6.477       4.742       2.555      6.1181E-03
   9   10.000       9.831       9.599       9.232       8.649       7.760       6.477       4.743       2.555      6.1181E-03
  10   10.000       9.831       9.599       9.233       8.650       7.760       6.477       4.743       2.555      6.1181E-03

 HEAD WILL BE SAVED ON UNIT   51 AT END OF TIME STEP    5, STRESS PERIOD    3

 DRAWDOWN WILL BE SAVED ON UNIT   52 AT END OF TIME STEP    5, STRESS PERIOD    3
1
  VOLUMETRIC BUDGET FOR ENTIRE MODEL AT END OF TIME STEP    5, STRESS PERIOD   3
  ------------------------------------------------------------------------------

     CUMULATIVE VOLUMES      L**3       RATES FOR THIS TIME STEP      L**3/T
     ------------------                 ------------------------

           IN:                                      IN:
           ---                                      ---
             STORAGE =      325822.3750               STORAGE =        1702.9465
       CONSTANT HEAD =           0.0000         CONSTANT HEAD =           0.0000
               WELLS =           0.0000                 WELLS =           0.0000
     HEAD DEP BOUNDS =        2872.9092       HEAD DEP BOUNDS =          99.3574

            TOTAL IN =      328695.2812              TOTAL IN =        1802.3040

          OUT:                                     OUT:
          ----                                     ----
             STORAGE =           0.0000               STORAGE =           0.0000
       CONSTANT HEAD =           0.0000         CONSTANT HEAD =           0.0000
               WELLS =        2500.0000                 WELLS =         500.0000
     HEAD DEP BOUNDS =      326195.9062       HEAD DEP BOUNDS =        1302.2947

           TOTAL OUT =      328695.9062             TOTAL OUT =        1802.2947

            IN - OUT =          -0.6250              IN - OUT =       9.2773E-03

 PERCENT DISCREPANCY =          -0.00     PERCENT DISCREPANCY =           0.00






         TIME SUMMARY AT END OF TIME STEP    5 IN STRESS PERIOD    3
                    SECONDS     MINUTES      HOURS       DAYS        YEARS
                    -----------------------------------------------------------
   TIME STEP LENGTH  86400.      1440.0      24.000      1.0000     2.73785E-03
 STRESS PERIOD TIME 4.32000E+05  7200.0      120.00      5.0000     1.36893E-02
         TOTAL TIME 9.15840E+06 1.52640E+05  2544.0      106.00     0.29021    
1
 
 SOLVING FOR HEAD 

 OUTPUT CONTROL FOR STRESS PERIOD    3   TIME STEP    6
    SAVE HEAD FOR ALL LAYERS
    SAVE DRAWDOWN FOR ALL LAYERS
    SAVE BUDGET
    PRINT HEAD FOR ALL LAYERS
    PRINT BUDGET
 UBDSV1 SAVING "         STORAGE" ON UNIT  53 AT TIME STEP  6, STRESS PERIOD   3
 UBDSV2 SAVING "   CONSTANT HEAD" ON UNIT  53 AT TIME STEP  6, STRESS PERIOD   3
 UBDSV1 SAVING "FLOW RIGHT FACE " ON UNIT  53 AT TIME STEP  6, STRESS PERIOD   3
 UBDSV1 SAVING "FLOW FRONT FACE " ON UNIT  53 AT TIME STEP  6, STRESS PERIOD   3
 UBDSV1 SAVING "FLOW LOWER FACE " ON UNIT  53 AT TIME STEP  6, STRESS PERIOD   3
1
              HEAD IN LAYER   1 AT END OF TIME STEP   6 IN STRESS PERIOD    3
  ---------------------------------------------------------------------------

            1           2           3           4           5           6           7           8           9          10
 ........................................................................................................................
   1   10.000       9.836       9.609       9.250       8.674       7.791       6.514       4.780       2.588      2.3214E-03
   2   10.000       9.836       9.609       9.248       8.671       7.790       6.513       4.780       2.588      2.3214E-03
   3   10.000       9.836       9.608       9.242       8.652       7.783       6.512       4.780       2.588      2.3212E-03
   4   10.000       9.835       9.601       9.208       8.503       7.750       6.506       4.779       2.588      2.3211E-03
   5   10.000       9.833       9.587       9.079       6.858       7.618       6.491       4.777       2.587      2.3209E-03
   6   10.000       9.835       9.601       9.208       8.503       7.750       6.506       4.779       2.588      2.3211E-03
   7   10.000       9.836       9.608       9.242       8.652       7.783       6.512       4.780       2.588      2.3212E-03
   8   10.000       9.836       9.609       9.248       8.671       7.790       6.513       4.780       2.588      2.3214E-03
   9   10.000       9.836       9.609       9.250       8.674       7.791       6.514       4.780       2.588      2.3214E-03
  10   10.000       9.836       9.610       9.250       8.674       7.791       6.514       4.780       2.588      2.3214E-03
1
              HEAD IN LAYER   2 AT END OF TIME STEP   6 IN STRESS PERIOD    3
  ---------------------------------------------------------------------------

            1           2           3           4           5           6           7           8           9          10
 ........................................................................................................................
   1   10.000       9.833       9.602       9.238       8.658       7.772       6.492       4.761       2.574      5.3927E-03
   2   10.000       9.832       9.602       9.237       8.654       7.770       6.492       4.761       2.574      5.3926E-03
   3   10.000       9.832       9.600       9.228       8.630       7.761       6.490       4.760       2.574      5.3925E-03
   4   10.000       9.831       9.592       9.185       8.456       7.719       6.482       4.759       2.573      5.3921E-03
   5   10.000       9.829       9.574       9.036       7.080       7.569       6.465       4.757       2.573      5.3916E-03
   6   10.000       9.831       9.592       9.185       8.456       7.719       6.482       4.759       2.573      5.3921E-03
   7   10.000       9.832       9.600       9.228       8.630       7.761       6.490       4.760       2.574      5.3925E-03
   8   10.000       9.832       9.602       9.237       8.654       7.770       6.492       4.761       2.574      5.3926E-03
   9   10.000       9.833       9.602       9.238       8.658       7.772       6.492       4.761       2.574      5.3927E-03
  10   10.000       9.833       9.602       9.238       8.658       7.772       6.493       4.761       2.574      5.3927E-03
1
              HEAD IN LAYER   3 AT END OF TIME STEP   6 IN STRESS PERIOD    3
  ---------------------------------------------------------------------------

            1           2           3           4           5           6           7           8           9          10
 ........................................................................................................................
   1   10.000       9.830       9.597       9.229       8.645       7.756       6.474       4.742       2.558      6.0299E-03
   2   10.000       9.830       9.596       9.227       8.641       7.754       6.473       4.742       2.558      6.0299E-03
   3   10.000       9.829       9.594       9.217       8.613       7.743       6.471       4.741       2.558      6.0297E-03
   4   10.000       9.828       9.584       9.167       8.422       7.694       6.462       4.740       2.558      6.0292E-03
   5   10.000       9.825       9.563       9.006       7.257       7.532       6.441       4.737       2.558      6.0285E-03
   6   10.000       9.828       9.584       9.167       8.422       7.694       6.462       4.740       2.558      6.0292E-03
   7   10.000       9.829       9.594       9.217       8.613       7.743       6.471       4.741       2.558      6.0297E-03
   8   10.000       9.830       9.596       9.227       8.641       7.754       6.473       4.742       2.558      6.0299E-03
   9   10.000       9.830       9.597       9.229       8.645       7.756       6.474       4.742       2.558      6.0300E-03
  10   10.000       9.830       9.597       9.230       8.646       7.756       6.474       4.742       2.558      6.0300E-03
1
              HEAD IN LAYER   4 AT END OF TIME STEP   6 IN STRESS PERIOD    3
  ---------------------------------------------------------------------------

            1           2           3           4           5           6           7           8           9          10
 ........................................................................................................................
   1   10.000       9.828       9.593       9.223       8.637       7.745       6.462       4.730       2.548      6.0913E-03
   2   10.000       9.828       9.592       9.221       8.632       7.743       6.461       4.730       2.548      6.0913E-03
   3   10.000       9.827       9.589       9.209       8.601       7.731       6.458       4.729       2.548      6.0910E-03
   4   10.000       9.826       9.579       9.155       8.402       7.677       6.448       4.727       2.548      6.0904E-03
   5   10.000       9.823       9.556       8.988       7.368       7.509       6.426       4.724       2.548      6.0897E-03
   6   10.000       9.826       9.579       9.155       8.402       7.677       6.448       4.727       2.548      6.0904E-03
   7   10.000       9.827       9.589       9.209       8.601       7.731       6.458       4.729       2.548      6.0910E-03
   8   10.000       9.828       9.592       9.221       8.632       7.743       6.461       4.730       2.548      6.0913E-03
   9   10.000       9.828       9.593       9.223       8.637       7.745       6.462       4.730       2.548      6.0913E-03
  10   10.000       9.828       9.593       9.224       8.638       7.745       6.462       4.730       2.548      6.0913E-03
1
              HEAD IN LAYER   5 AT END OF TIME STEP   6 IN STRESS PERIOD    3
  ---------------------------------------------------------------------------

            1           2           3           4           5           6           7           8           9          10
 ........................................................................................................................
   1   10.000       9.827       9.591       9.220       8.633       7.739       6.456       4.723       2.543      6.0900E-03
   2   10.000       9.827       9.591       9.218       8.628       7.737       6.455       4.723       2.543      6.0900E-03
   3   10.000       9.827       9.587       9.206       8.595       7.725       6.452       4.723       2.543      6.0897E-03
   4   10.000       9.825       9.576       9.149       8.392       7.669       6.441       4.721       2.543      6.0891E-03
   5   10.000       9.822       9.553       8.980       7.422       7.499       6.418       4.718       2.543      6.0883E-03
   6   10.000       9.825       9.576       9.149       8.392       7.669       6.441       4.721       2.543      6.0891E-03
   7   10.000       9.827       9.587       9.206       8.595       7.725       6.452       4.723       2.543      6.0897E-03
   8   10.000       9.827       9.591       9.218       8.628       7.737       6.455       4.723       2.543      6.0900E-03
   9   10.000       9.827       9.591       9.220       8.633       7.740       6.456       4.723       2.543      6.0900E-03
  10   10.000       9.827       9.591       9.221       8.633       7.740       6.456       4.724       2.543      6.0901E-03

 HEAD WILL BE SAVED ON UNIT   51 AT END OF TIME STEP    6, STRESS PERIOD    3

 DRAWDOWN WILL BE SAVED ON UNIT   52 AT END OF TIME STEP    6, STRESS PERIOD    3
1
  VOLUMETRIC BUDGET FOR ENTIRE MODEL AT END OF TIME STEP    6, STRESS PERIOD   3
  ------------------------------------------------------------------------------

     CUMULATIVE VOLUMES      L**3       RATES FOR THIS TIME STEP      L**3/T
     ------------------                 ------------------------

           IN:                                      IN:
           ---                                      ---
             STORAGE =      327516.8750               STORAGE =        1694.4919
       CONSTANT HEAD =           0.0000         CONSTANT HEAD =           0.0000
               WELLS =           0.0000                 WELLS =           0.0000
     HEAD DEP BOUNDS =        2974.6194       HEAD DEP BOUNDS =         101.7103

            TOTAL IN =      330491.5000              TOTAL IN =        1796.2021

          OUT:                                     OUT:
          ----                                     ----
             STORAGE =           0.0000               STORAGE =           0.0000
       CONSTANT HEAD =           0.0000         CONSTANT HEAD =           0.0000
               WELLS =        3000.0000                 WELLS =         500.0000
     HEAD DEP BOUNDS =      327492.0938       HEAD DEP BOUNDS =        1296.1898

           TOTAL OUT =      330492.0938             TOTAL OUT =        1796.1898

            IN - OUT =          -0.5938              IN - OUT =       1.2329E-02

 PERCENT DISCREPANCY =          -0.00     PERCENT DISCREPANCY =           0.00






         TIME SUMMARY AT END OF TIME STEP    6 IN STRESS PERIOD    3
                    SECONDS     MINUTES      HOURS       DAYS        YEARS
                    -----------------------------------------------------------
   TIME STEP LENGTH  86400.      1440.0      24.000      1.0000     2.73785E-03
 STRESS PERIOD TIME 5.18400E+05  8640.0      144.00      6.0000     1.64271E-02
         TOTAL TIME 9.24480E+06 1.54080E+05  2568.0      107.00     0.29295    
1
 
 SOLVING FOR HEAD 

 OUTPUT CONTROL FOR STRESS PERIOD    3   TIME STEP    7
    SAVE HEAD FOR ALL LAYERS
    SAVE DRAWDOWN FOR ALL LAYERS
    SAVE BUDGET
    PRINT HEAD FOR ALL LAYERS
    PRINT BUDGET
 UBDSV1 SAVING "         STORAGE" ON UNIT  53 AT TIME STEP  7, STRESS PERIOD   3
 UBDSV2 SAVING "   CONSTANT HEAD" ON UNIT  53 AT TIME STEP  7, STRESS PERIOD   3
 UBDSV1 SAVING "FLOW RIGHT FACE " ON UNIT  53 AT TIME STEP  7, STRESS PERIOD   3
 UBDSV1 SAVING "FLOW FRONT FACE " ON UNIT  53 AT TIME STEP  7, STRESS PERIOD   3
 UBDSV1 SAVING "FLOW LOWER FACE " ON UNIT  53 AT TIME STEP  7, STRESS PERIOD   3
1
              HEAD IN LAYER   1 AT END OF TIME STEP   7 IN STRESS PERIOD    3
  ---------------------------------------------------------------------------

            1           2           3           4           5           6           7           8           9          10
 ........................................................................................................................
   1   10.000       9.832       9.602       9.237       8.657       7.771       6.492       4.761       2.576      2.3096E-03
   2   10.000       9.832       9.601       9.236       8.653       7.769       6.491       4.761       2.576      2.3096E-03
   3   10.000       9.832       9.599       9.226       8.628       7.760       6.489       4.760       2.576      2.3095E-03
   4   10.000       9.830       9.591       9.182       8.446       7.716       6.481       4.759       2.575      2.3093E-03
   5   10.000       9.828       9.572       9.027       6.655       7.557       6.462       4.756       2.575      2.3090E-03
   6   10.000       9.830       9.591       9.182       8.446       7.716       6.481       4.759       2.575      2.3093E-03
   7   10.000       9.832       9.599       9.226       8.628       7.760       6.489       4.760       2.576      2.3095E-03
   8   10.000       9.832       9.601       9.236       8.653       7.769       6.491       4.761       2.576      2.3096E-03
   9   10.000       9.832       9.602       9.237       8.657       7.771       6.492       4.761       2.576      2.3096E-03
  10   10.000       9.832       9.602       9.238       8.658       7.771       6.492       4.761       2.576      2.3096E-03
1
              HEAD IN LAYER   2 AT END OF TIME STEP   7 IN STRESS PERIOD    3
  ---------------------------------------------------------------------------

            1           2           3           4           5           6           7           8           9          10
 ........................................................................................................................
   1   10.000       9.829       9.595       9.226       8.641       7.751       6.471       4.741       2.562      5.3675E-03
   2   10.000       9.829       9.594       9.224       8.636       7.749       6.470       4.741       2.562      5.3675E-03
   3   10.000       9.828       9.591       9.212       8.605       7.738       6.467       4.741       2.562      5.3672E-03
   4   10.000       9.826       9.580       9.158       8.398       7.684       6.457       4.739       2.561      5.3667E-03
   5   10.000       9.824       9.558       8.983       6.895       7.507       6.435       4.736       2.561      5.3660E-03
   6   10.000       9.826       9.580       9.158       8.398       7.684       6.457       4.739       2.561      5.3667E-03
   7   10.000       9.828       9.591       9.212       8.605       7.738       6.467       4.741       2.562      5.3672E-03
   8   10.000       9.829       9.594       9.224       8.636       7.749       6.470       4.741       2.562      5.3675E-03
   9   10.000       9.829       9.595       9.226       8.641       7.751       6.471       4.741       2.562      5.3675E-03
  10   10.000       9.829       9.595       9.226       8.642       7.752       6.471       4.741       2.562      5.3675E-03
1
              HEAD IN LAYER   3 AT END OF TIME STEP   7 IN STRESS PERIOD    3
  ---------------------------------------------------------------------------

            1           2           3           4           5           6           7           8           9          10
 ........................................................................................................................
   1   10.000       9.826       9.589       9.217       8.628       7.735       6.452       4.723       2.547      6.0023E-03
   2   10.000       9.826       9.588       9.214       8.623       7.733       6.452       4.723       2.547      6.0022E-03
   3   10.000       9.825       9.585       9.201       8.587       7.719       6.448       4.722       2.547      6.0019E-03
   4   10.000       9.823       9.572       9.139       8.364       7.658       6.436       4.720       2.546      6.0011E-03
   5   10.000       9.820       9.547       8.952       7.089       7.469       6.411       4.717       2.546      6.0002E-03
   6   10.000       9.823       9.572       9.139       8.364       7.658       6.436       4.720       2.546      6.0011E-03
   7   10.000       9.825       9.585       9.201       8.587       7.719       6.448       4.722       2.547      6.0019E-03
   8   10.000       9.826       9.588       9.214       8.623       7.733       6.452       4.723       2.547      6.0022E-03
   9   10.000       9.826       9.589       9.217       8.629       7.735       6.452       4.723       2.547      6.0023E-03
  10   10.000       9.826       9.589       9.217       8.629       7.736       6.453       4.723       2.547      6.0023E-03
1
              HEAD IN LAYER   4 AT END OF TIME STEP   7 IN STRESS PERIOD    3
  ---------------------------------------------------------------------------

            1           2           3           4           5           6           7           8           9          10
 ........................................................................................................................
   1   10.000       9.825       9.585       9.211       8.620       7.725       6.440       4.711       2.537      6.0635E-03
   2   10.000       9.824       9.584       9.208       8.614       7.722       6.439       4.711       2.537      6.0634E-03
   3   10.000       9.823       9.580       9.193       8.575       7.707       6.435       4.710       2.537      6.0631E-03
   4   10.000       9.821       9.567       9.126       8.343       7.640       6.422       4.707       2.536      6.0623E-03
   5   10.000       9.818       9.540       8.934       7.211       7.446       6.395       4.704       2.536      6.0612E-03
   6   10.000       9.821       9.567       9.126       8.343       7.640       6.422       4.707       2.536      6.0623E-03
   7   10.000       9.823       9.580       9.193       8.575       7.707       6.435       4.710       2.537      6.0631E-03
   8   10.000       9.824       9.584       9.208       8.614       7.722       6.439       4.711       2.537      6.0634E-03
   9   10.000       9.825       9.585       9.211       8.620       7.725       6.440       4.711       2.537      6.0635E-03
  10   10.000       9.825       9.586       9.212       8.621       7.725       6.440       4.711       2.537      6.0636E-03
1
              HEAD IN LAYER   5 AT END OF TIME STEP   7 IN STRESS PERIOD    3
  ---------------------------------------------------------------------------

            1           2           3           4           5           6           7           8           9          10
 ........................................................................................................................
   1   10.000       9.824       9.583       9.208       8.616       7.719       6.434       4.705       2.532      6.0623E-03
   2   10.000       9.823       9.583       9.205       8.609       7.716       6.433       4.704       2.532      6.0622E-03
   3   10.000       9.823       9.578       9.189       8.569       7.700       6.429       4.704       2.532      6.0619E-03
   4   10.000       9.820       9.564       9.120       8.333       7.632       6.415       4.701       2.531      6.0610E-03
   5   10.000       9.816       9.536       8.925       7.270       7.436       6.387       4.697       2.531      6.0599E-03
   6   10.000       9.820       9.564       9.120       8.333       7.632       6.415       4.701       2.531      6.0610E-03
   7   10.000       9.823       9.578       9.189       8.569       7.700       6.429       4.704       2.532      6.0619E-03
   8   10.000       9.823       9.583       9.205       8.609       7.716       6.433       4.704       2.532      6.0622E-03
   9   10.000       9.824       9.584       9.208       8.616       7.719       6.434       4.705       2.532      6.0623E-03
  10   10.000       9.824       9.584       9.209       8.617       7.720       6.434       4.705       2.532      6.0624E-03

 HEAD WILL BE SAVED ON UNIT   51 AT END OF TIME STEP    7, STRESS PERIOD    3

 DRAWDOWN WILL BE SAVED ON UNIT   52 AT END OF TIME STEP    7, STRESS PERIOD    3
1
  VOLUMETRIC BUDGET FOR ENTIRE MODEL AT END OF TIME STEP    7, STRESS PERIOD   3
  ------------------------------------------------------------------------------

     CUMULATIVE VOLUMES      L**3       RATES FOR THIS TIME STEP      L**3/T
     ------------------                 ------------------------

           IN:                                      IN:
           ---                                      ---
             STORAGE =      329202.9062               STORAGE =        1686.0442
       CONSTANT HEAD =           0.0000         CONSTANT HEAD =           0.0000
               WELLS =           0.0000                 WELLS =           0.0000
     HEAD DEP BOUNDS =        3078.7361       HEAD DEP BOUNDS =         104.1168

            TOTAL IN =      332281.6562              TOTAL IN =        1790.1610

          OUT:                                     OUT:
          ----                                     ----
             STORAGE =           0.0000               STORAGE =           0.0000
       CONSTANT HEAD =           0.0000         CONSTANT HEAD =           0.0000
               WELLS =        3500.0000                 WELLS =         500.0000
     HEAD DEP BOUNDS =      328782.2500       HEAD DEP BOUNDS =        1290.1498

           TOTAL OUT =      332282.2500             TOTAL OUT =        1790.1498

            IN - OUT =          -0.5938              IN - OUT =       1.1230E-02

 PERCENT DISCREPANCY =          -0.00     PERCENT DISCREPANCY =           0.00






         TIME SUMMARY AT END OF TIME STEP    7 IN STRESS PERIOD    3
                    SECONDS     MINUTES      HOURS       DAYS        YEARS
                    -----------------------------------------------------------
   TIME STEP LENGTH  86400.      1440.0      24.000      1.0000     2.73785E-03
 STRESS PERIOD TIME 6.04800E+05  10080.      168.00      7.0000     1.91650E-02
         TOTAL TIME 9.33120E+06 1.55520E+05  2592.0      108.00     0.29569    
1
 
 SOLVING FOR HEAD 

 OUTPUT CONTROL FOR STRESS PERIOD    3   TIME STEP    8
    SAVE HEAD FOR ALL LAYERS
    SAVE DRAWDOWN FOR ALL LAYERS
    SAVE BUDGET
    PRINT HEAD FOR ALL LAYERS
    PRINT BUDGET
 UBDSV1 SAVING "         STORAGE" ON UNIT  53 AT TIME STEP  8, STRESS PERIOD   3
 UBDSV2 SAVING "   CONSTANT HEAD" ON UNIT  53 AT TIME STEP  8, STRESS PERIOD   3
 UBDSV1 SAVING "FLOW RIGHT FACE " ON UNIT  53 AT TIME STEP  8, STRESS PERIOD   3
 UBDSV1 SAVING "FLOW FRONT FACE " ON UNIT  53 AT TIME STEP  8, STRESS PERIOD   3
 UBDSV1 SAVING "FLOW LOWER FACE " ON UNIT  53 AT TIME STEP  8, STRESS PERIOD   3
1
              HEAD IN LAYER   1 AT END OF TIME STEP   8 IN STRESS PERIOD    3
  ---------------------------------------------------------------------------

            1           2           3           4           5           6           7           8           9          10
 ........................................................................................................................
   1   10.000       9.829       9.594       9.225       8.640       7.750       6.470       4.742       2.564      2.2980E-03
   2   10.000       9.829       9.593       9.223       8.635       7.748       6.469       4.741       2.564      2.2980E-03
   3   10.000       9.828       9.590       9.211       8.603       7.736       6.466       4.741       2.564      2.2979E-03
   4   10.000       9.826       9.579       9.155       8.388       7.680       6.455       4.739       2.563      2.2974E-03
   5   10.000       9.823       9.557       8.975       6.473       7.495       6.432       4.736       2.563      2.2971E-03
   6   10.000       9.826       9.579       9.155       8.388       7.680       6.455       4.739       2.563      2.2974E-03
   7   10.000       9.828       9.590       9.211       8.603       7.736       6.466       4.741       2.564      2.2979E-03
   8   10.000       9.829       9.593       9.223       8.635       7.748       6.469       4.741       2.564      2.2980E-03
   9   10.000       9.829       9.594       9.225       8.640       7.750       6.470       4.742       2.564      2.2980E-03
  10   10.000       9.829       9.594       9.226       8.641       7.751       6.470       4.742       2.564      2.2980E-03
1
              HEAD IN LAYER   2 AT END OF TIME STEP   8 IN STRESS PERIOD    3
  ---------------------------------------------------------------------------

            1           2           3           4           5           6           7           8           9          10
 ........................................................................................................................
   1   10.000       9.825       9.587       9.214       8.624       7.731       6.449       4.722       2.550      5.3427E-03
   2   10.000       9.825       9.586       9.211       8.618       7.728       6.448       4.722       2.550      5.3426E-03
   3   10.000       9.824       9.582       9.196       8.580       7.713       6.445       4.721       2.550      5.3423E-03
   4   10.000       9.822       9.568       9.130       8.340       7.648       6.431       4.719       2.549      5.3415E-03
   5   10.000       9.818       9.541       8.929       6.728       7.445       6.404       4.716       2.549      5.3406E-03
   6   10.000       9.822       9.568       9.130       8.340       7.648       6.431       4.719       2.549      5.3415E-03
   7   10.000       9.824       9.582       9.196       8.580       7.713       6.445       4.721       2.550      5.3423E-03
   8   10.000       9.825       9.586       9.211       8.618       7.728       6.448       4.722       2.550      5.3426E-03
   9   10.000       9.825       9.587       9.214       8.624       7.731       6.449       4.722       2.550      5.3427E-03
  10   10.000       9.825       9.587       9.214       8.625       7.732       6.450       4.723       2.550      5.3427E-03
1
              HEAD IN LAYER   3 AT END OF TIME STEP   8 IN STRESS PERIOD    3
  ---------------------------------------------------------------------------

            1           2           3           4           5           6           7           8           9          10
 ........................................................................................................................
   1   10.000       9.823       9.581       9.205       8.612       7.715       6.431       4.704       2.535      5.9749E-03
   2   10.000       9.822       9.580       9.201       8.605       7.712       6.430       4.704       2.535      5.9748E-03
   3   10.000       9.821       9.575       9.184       8.561       7.694       6.425       4.703       2.535      5.9744E-03
   4   10.000       9.818       9.560       9.110       8.305       7.621       6.410       4.700       2.534      5.9734E-03
   5   10.000       9.814       9.530       8.899       6.936       7.407       6.380       4.696       2.534      5.9722E-03
   6   10.000       9.818       9.560       9.110       8.305       7.621       6.410       4.700       2.534      5.9734E-03
   7   10.000       9.821       9.575       9.184       8.561       7.694       6.425       4.703       2.535      5.9744E-03
   8   10.000       9.822       9.580       9.201       8.605       7.712       6.430       4.704       2.535      5.9748E-03
   9   10.000       9.823       9.581       9.205       8.612       7.715       6.431       4.704       2.535      5.9749E-03
  10   10.000       9.823       9.582       9.205       8.613       7.716       6.431       4.704       2.535      5.9750E-03
1
              HEAD IN LAYER   4 AT END OF TIME STEP   8 IN STRESS PERIOD    3
  ---------------------------------------------------------------------------

            1           2           3           4           5           6           7           8           9          10
 ........................................................................................................................
   1   10.000       9.821       9.578       9.199       8.603       7.704       6.419       4.692       2.525      6.0361E-03
   2   10.000       9.821       9.576       9.195       8.596       7.701       6.418       4.692       2.525      6.0360E-03
   3   10.000       9.819       9.571       9.176       8.549       7.682       6.413       4.691       2.525      6.0355E-03
   4   10.000       9.816       9.554       9.097       8.284       7.603       6.396       4.688       2.525      6.0344E-03
   5   10.000       9.812       9.522       8.880       7.067       7.384       6.364       4.683       2.524      6.0330E-03
   6   10.000       9.816       9.554       9.097       8.284       7.603       6.396       4.688       2.525      6.0344E-03
   7   10.000       9.819       9.571       9.176       8.549       7.682       6.413       4.691       2.525      6.0355E-03
   8   10.000       9.821       9.576       9.195       8.596       7.701       6.418       4.692       2.525      6.0360E-03
   9   10.000       9.821       9.578       9.199       8.603       7.705       6.419       4.692       2.525      6.0361E-03
  10   10.000       9.821       9.578       9.200       8.605       7.705       6.419       4.692       2.525      6.0362E-03
1
              HEAD IN LAYER   5 AT END OF TIME STEP   8 IN STRESS PERIOD    3
  ---------------------------------------------------------------------------

            1           2           3           4           5           6           7           8           9          10
 ........................................................................................................................
   1   10.000       9.820       9.576       9.196       8.599       7.699       6.413       4.686       2.521      6.0350E-03
   2   10.000       9.820       9.574       9.192       8.591       7.695       6.412       4.686       2.520      6.0349E-03
   3   10.000       9.818       9.569       9.172       8.543       7.675       6.406       4.685       2.520      6.0344E-03
   4   10.000       9.815       9.551       9.090       8.275       7.594       6.389       4.681       2.520      6.0332E-03
   5   10.000       9.811       9.518       8.871       7.131       7.373       6.356       4.677       2.519      6.0317E-03
   6   10.000       9.815       9.551       9.090       8.275       7.594       6.389       4.681       2.520      6.0332E-03
   7   10.000       9.818       9.569       9.172       8.543       7.675       6.406       4.685       2.520      6.0344E-03
   8   10.000       9.820       9.574       9.192       8.591       7.695       6.412       4.686       2.520      6.0349E-03
   9   10.000       9.820       9.576       9.196       8.599       7.699       6.413       4.686       2.521      6.0350E-03
  10   10.000       9.820       9.576       9.197       8.600       7.700       6.413       4.686       2.521      6.0351E-03

 HEAD WILL BE SAVED ON UNIT   51 AT END OF TIME STEP    8, STRESS PERIOD    3

 DRAWDOWN WILL BE SAVED ON UNIT   52 AT END OF TIME STEP    8, STRESS PERIOD    3
1
  VOLUMETRIC BUDGET FOR ENTIRE MODEL AT END OF TIME STEP    8, STRESS PERIOD   3
  ------------------------------------------------------------------------------

     CUMULATIVE VOLUMES      L**3       RATES FOR THIS TIME STEP      L**3/T
     ------------------                 ------------------------

           IN:                                      IN:
           ---                                      ---
             STORAGE =      330880.5000               STORAGE =        1677.6057
       CONSTANT HEAD =           0.0000         CONSTANT HEAD =           0.0000
               WELLS =           0.0000                 WELLS =           0.0000
     HEAD DEP BOUNDS =        3185.3218       HEAD DEP BOUNDS =         106.5856

            TOTAL IN =      334065.8125              TOTAL IN =        1784.1913

          OUT:                                     OUT:
          ----                                     ----
             STORAGE =           0.0000               STORAGE =           0.0000
       CONSTANT HEAD =           0.0000         CONSTANT HEAD =           0.0000
               WELLS =        4000.0000                 WELLS =         500.0000
     HEAD DEP BOUNDS =      330066.4375       HEAD DEP BOUNDS =        1284.1824

           TOTAL OUT =      334066.4375             TOTAL OUT =        1784.1824

            IN - OUT =          -0.6250              IN - OUT =       8.9111E-03

 PERCENT DISCREPANCY =          -0.00     PERCENT DISCREPANCY =           0.00






         TIME SUMMARY AT END OF TIME STEP    8 IN STRESS PERIOD    3
                    SECONDS     MINUTES      HOURS       DAYS        YEARS
                    -----------------------------------------------------------
   TIME STEP LENGTH  86400.      1440.0      24.000      1.0000     2.73785E-03
 STRESS PERIOD TIME 6.91200E+05  11520.      192.00      8.0000     2.19028E-02
         TOTAL TIME 9.41760E+06 1.56960E+05  2616.0      109.00     0.29843    
1
 
 SOLVING FOR HEAD 

 OUTPUT CONTROL FOR STRESS PERIOD    3   TIME STEP    9
    SAVE HEAD FOR ALL LAYERS
    SAVE DRAWDOWN FOR ALL LAYERS
    SAVE BUDGET
    PRINT HEAD FOR ALL LAYERS
    PRINT BUDGET
 UBDSV1 SAVING "         STORAGE" ON UNIT  53 AT TIME STEP  9, STRESS PERIOD   3
 UBDSV2 SAVING "   CONSTANT HEAD" ON UNIT  53 AT TIME STEP  9, STRESS PERIOD   3
 UBDSV1 SAVING "FLOW RIGHT FACE " ON UNIT  53 AT TIME STEP  9, STRESS PERIOD   3
 UBDSV1 SAVING "FLOW FRONT FACE " ON UNIT  53 AT TIME STEP  9, STRESS PERIOD   3
 UBDSV1 SAVING "FLOW LOWER FACE " ON UNIT  53 AT TIME STEP  9, STRESS PERIOD   3
1
              HEAD IN LAYER   1 AT END OF TIME STEP   9 IN STRESS PERIOD    3
  ---------------------------------------------------------------------------

            1           2           3           4           5           6           7           8           9          10
 ........................................................................................................................
   1   10.000       9.825       9.586       9.213       8.623       7.730       6.449       4.723       2.552      2.2867E-03
   2   10.000       9.825       9.586       9.210       8.617       7.727       6.448       4.722       2.552      2.2866E-03
   3   10.000       9.824       9.581       9.194       8.578       7.711       6.444       4.721       2.552      2.2864E-03
   4   10.000       9.821       9.567       9.127       8.330       7.644       6.430       4.719       2.551      2.2860E-03
   5   10.000       9.818       9.540       8.922       6.309       7.433       6.402       4.715       2.551      2.2855E-03
   6   10.000       9.821       9.567       9.127       8.330       7.644       6.430       4.719       2.551      2.2860E-03
   7   10.000       9.824       9.581       9.194       8.578       7.711       6.444       4.721       2.552      2.2864E-03
   8   10.000       9.825       9.586       9.210       8.617       7.727       6.448       4.722       2.552      2.2866E-03
   9   10.000       9.825       9.587       9.213       8.624       7.730       6.449       4.723       2.552      2.2867E-03
  10   10.000       9.825       9.587       9.214       8.625       7.731       6.449       4.723       2.552      2.2867E-03
1
              HEAD IN LAYER   2 AT END OF TIME STEP   9 IN STRESS PERIOD    3
  ---------------------------------------------------------------------------

            1           2           3           4           5           6           7           8           9          10
 ........................................................................................................................
   1   10.000       9.822       9.579       9.201       8.607       7.711       6.428       4.704       2.538      5.3183E-03
   2   10.000       9.821       9.578       9.198       8.600       7.707       6.427       4.703       2.538      5.3181E-03
   3   10.000       9.820       9.573       9.179       8.554       7.688       6.422       4.702       2.538      5.3177E-03
   4   10.000       9.817       9.556       9.101       8.282       7.610       6.405       4.699       2.538      5.3167E-03
   5   10.000       9.813       9.524       8.876       6.576       7.383       6.374       4.695       2.537      5.3155E-03
   6   10.000       9.817       9.556       9.101       8.282       7.610       6.405       4.699       2.538      5.3167E-03
   7   10.000       9.820       9.573       9.179       8.554       7.688       6.422       4.702       2.538      5.3177E-03
   8   10.000       9.821       9.578       9.198       8.600       7.707       6.427       4.703       2.538      5.3181E-03
   9   10.000       9.822       9.579       9.202       8.608       7.711       6.428       4.704       2.538      5.3183E-03
  10   10.000       9.822       9.579       9.202       8.609       7.712       6.428       4.704       2.538      5.3183E-03
1
              HEAD IN LAYER   3 AT END OF TIME STEP   9 IN STRESS PERIOD    3
  ---------------------------------------------------------------------------

            1           2           3           4           5           6           7           8           9          10
 ........................................................................................................................
   1   10.000       9.819       9.574       9.192       8.595       7.695       6.410       4.686       2.524      5.9480E-03
   2   10.000       9.819       9.572       9.188       8.586       7.691       6.409       4.685       2.524      5.9478E-03
   3   10.000       9.817       9.566       9.166       8.535       7.669       6.403       4.684       2.523      5.9472E-03
   4   10.000       9.814       9.547       9.080       8.248       7.583       6.384       4.681       2.523      5.9459E-03
   5   10.000       9.809       9.512       8.846       6.797       7.346       6.349       4.676       2.522      5.9443E-03
   6   10.000       9.814       9.547       9.080       8.248       7.583       6.384       4.681       2.523      5.9459E-03
   7   10.000       9.817       9.566       9.166       8.535       7.669       6.403       4.684       2.523      5.9472E-03
   8   10.000       9.819       9.572       9.188       8.586       7.691       6.409       4.685       2.524      5.9478E-03
   9   10.000       9.819       9.574       9.193       8.595       7.695       6.410       4.686       2.524      5.9480E-03
  10   10.000       9.819       9.574       9.193       8.596       7.696       6.410       4.686       2.524      5.9480E-03
1
              HEAD IN LAYER   4 AT END OF TIME STEP   9 IN STRESS PERIOD    3
  ---------------------------------------------------------------------------

            1           2           3           4           5           6           7           8           9          10
 ........................................................................................................................
   1   10.000       9.817       9.570       9.186       8.586       7.684       6.398       4.674       2.514      6.0091E-03
   2   10.000       9.817       9.568       9.182       8.577       7.680       6.396       4.673       2.514      6.0089E-03
   3   10.000       9.815       9.562       9.158       8.522       7.656       6.390       4.672       2.514      6.0082E-03
   4   10.000       9.811       9.541       9.066       8.227       7.564       6.369       4.668       2.513      6.0067E-03
   5   10.000       9.806       9.504       8.827       6.936       7.323       6.332       4.663       2.512      6.0050E-03
   6   10.000       9.811       9.541       9.066       8.227       7.564       6.369       4.668       2.513      6.0067E-03
   7   10.000       9.815       9.562       9.158       8.522       7.656       6.390       4.672       2.514      6.0082E-03
   8   10.000       9.817       9.568       9.182       8.577       7.680       6.396       4.673       2.514      6.0089E-03
   9   10.000       9.817       9.570       9.187       8.587       7.684       6.398       4.674       2.514      6.0091E-03
  10   10.000       9.817       9.570       9.187       8.588       7.685       6.398       4.674       2.514      6.0091E-03
1
              HEAD IN LAYER   5 AT END OF TIME STEP   9 IN STRESS PERIOD    3
  ---------------------------------------------------------------------------

            1           2           3           4           5           6           7           8           9          10
 ........................................................................................................................
   1   10.000       9.816       9.568       9.183       8.582       7.679       6.392       4.668       2.509      6.0081E-03
   2   10.000       9.816       9.566       9.178       8.572       7.674       6.390       4.667       2.509      6.0078E-03
   3   10.000       9.814       9.559       9.154       8.516       7.650       6.384       4.666       2.509      6.0072E-03
   4   10.000       9.810       9.538       9.059       8.217       7.555       6.362       4.662       2.508      6.0056E-03
   5   10.000       9.805       9.500       8.818       7.004       7.312       6.324       4.656       2.507      6.0038E-03
   6   10.000       9.810       9.538       9.059       8.217       7.555       6.362       4.662       2.508      6.0056E-03
   7   10.000       9.814       9.559       9.154       8.516       7.650       6.384       4.666       2.509      6.0072E-03
   8   10.000       9.816       9.566       9.178       8.572       7.674       6.390       4.667       2.509      6.0079E-03
   9   10.000       9.816       9.568       9.184       8.582       7.679       6.392       4.668       2.509      6.0081E-03
  10   10.000       9.816       9.568       9.185       8.584       7.680       6.392       4.668       2.509      6.0081E-03

 HEAD WILL BE SAVED ON UNIT   51 AT END OF TIME STEP    9, STRESS PERIOD    3

 DRAWDOWN WILL BE SAVED ON UNIT   52 AT END OF TIME STEP    9, STRESS PERIOD    3
1
  VOLUMETRIC BUDGET FOR ENTIRE MODEL AT END OF TIME STEP    9, STRESS PERIOD   3
  ------------------------------------------------------------------------------

     CUMULATIVE VOLUMES      L**3       RATES FOR THIS TIME STEP      L**3/T
     ------------------                 ------------------------

           IN:                                      IN:
           ---                                      ---
             STORAGE =      332549.6875               STORAGE =        1669.1940
       CONSTANT HEAD =           0.0000         CONSTANT HEAD =           0.0000
               WELLS =           0.0000                 WELLS =           0.0000
     HEAD DEP BOUNDS =        3294.4263       HEAD DEP BOUNDS =         109.1044

            TOTAL IN =      335844.1250              TOTAL IN =        1778.2983

          OUT:                                     OUT:
          ----                                     ----
             STORAGE =           0.0000               STORAGE =           0.0000
       CONSTANT HEAD =           0.0000         CONSTANT HEAD =           0.0000
               WELLS =        4500.0000                 WELLS =         500.0000
     HEAD DEP BOUNDS =      331344.7188       HEAD DEP BOUNDS =        1278.2920

           TOTAL OUT =      335844.7188             TOTAL OUT =        1778.2920

            IN - OUT =          -0.5938              IN - OUT =       6.3477E-03

 PERCENT DISCREPANCY =          -0.00     PERCENT DISCREPANCY =           0.00






         TIME SUMMARY AT END OF TIME STEP    9 IN STRESS PERIOD    3
                    SECONDS     MINUTES      HOURS       DAYS        YEARS
                    -----------------------------------------------------------
   TIME STEP LENGTH  86400.      1440.0      24.000      1.0000     2.73785E-03
 STRESS PERIOD TIME 7.77600E+05  12960.      216.00      9.0000     2.46407E-02
         TOTAL TIME 9.50400E+06 1.58400E+05  2640.0      110.00     0.30116    
1
 
 SOLVING FOR HEAD 

 OUTPUT CONTROL FOR STRESS PERIOD    3   TIME STEP   10
    SAVE HEAD FOR ALL LAYERS
    SAVE DRAWDOWN FOR ALL LAYERS
    SAVE BUDGET
    PRINT HEAD FOR ALL LAYERS
    PRINT BUDGET
 UBDSV1 SAVING "         STORAGE" ON UNIT  53 AT TIME STEP 10, STRESS PERIOD   3
 UBDSV2 SAVING "   CONSTANT HEAD" ON UNIT  53 AT TIME STEP 10, STRESS PERIOD   3
 UBDSV1 SAVING "FLOW RIGHT FACE " ON UNIT  53 AT TIME STEP 10, STRESS PERIOD   3
 UBDSV1 SAVING "FLOW FRONT FACE " ON UNIT  53 AT TIME STEP 10, STRESS PERIOD   3
 UBDSV1 SAVING "FLOW LOWER FACE " ON UNIT  53 AT TIME STEP 10, STRESS PERIOD   3
1
              HEAD IN LAYER   1 AT END OF TIME STEP  10 IN STRESS PERIOD    3
  ---------------------------------------------------------------------------

            1           2           3           4           5           6           7           8           9          10
 ........................................................................................................................
   1   10.000       9.821       9.579       9.201       8.607       7.710       6.427       4.704       2.540      2.2754E-03
   2   10.000       9.821       9.577       9.197       8.599       7.706       6.426       4.703       2.540      2.2753E-03
   3   10.000       9.820       9.572       9.177       8.552       7.687       6.421       4.702       2.540      2.2750E-03
   4   10.000       9.817       9.555       9.098       8.273       7.607       6.403       4.699       2.540      2.2745E-03
   5   10.000       9.812       9.523       8.869       6.159       7.372       6.371       4.694       2.539      2.2739E-03
   6   10.000       9.817       9.555       9.098       8.273       7.607       6.403       4.699       2.540      2.2745E-03
   7   10.000       9.820       9.572       9.177       8.552       7.687       6.421       4.702       2.540      2.2750E-03
   8   10.000       9.821       9.577       9.197       8.599       7.706       6.426       4.703       2.540      2.2753E-03
   9   10.000       9.821       9.579       9.201       8.607       7.710       6.427       4.704       2.540      2.2754E-03
  10   10.000       9.822       9.579       9.202       8.608       7.711       6.428       4.704       2.540      2.2754E-03
1
              HEAD IN LAYER   2 AT END OF TIME STEP  10 IN STRESS PERIOD    3
  ---------------------------------------------------------------------------

            1           2           3           4           5           6           7           8           9          10
 ........................................................................................................................
   1   10.000       9.818       9.571       9.189       8.591       7.691       6.407       4.685       2.527      5.2941E-03
   2   10.000       9.817       9.570       9.184       8.581       7.686       6.405       4.685       2.527      5.2939E-03
   3   10.000       9.816       9.563       9.161       8.527       7.663       6.399       4.683       2.527      5.2933E-03
   4   10.000       9.812       9.543       9.071       8.225       7.573       6.379       4.680       2.526      5.2920E-03
   5   10.000       9.807       9.506       8.824       6.438       7.322       6.342       4.674       2.525      5.2905E-03
   6   10.000       9.812       9.543       9.071       8.225       7.573       6.379       4.680       2.526      5.2920E-03
   7   10.000       9.816       9.563       9.161       8.527       7.663       6.399       4.683       2.527      5.2933E-03
   8   10.000       9.817       9.570       9.184       8.581       7.686       6.405       4.685       2.527      5.2940E-03
   9   10.000       9.818       9.571       9.189       8.591       7.691       6.407       4.685       2.527      5.2941E-03
  10   10.000       9.818       9.572       9.190       8.592       7.692       6.407       4.685       2.527      5.2942E-03
1
              HEAD IN LAYER   3 AT END OF TIME STEP  10 IN STRESS PERIOD    3
  ---------------------------------------------------------------------------

            1           2           3           4           5           6           7           8           9          10
 ........................................................................................................................
   1   10.000       9.815       9.566       9.180       8.578       7.675       6.389       4.667       2.512      5.9214E-03
   2   10.000       9.815       9.564       9.175       8.567       7.669       6.387       4.667       2.512      5.9211E-03
   3   10.000       9.813       9.556       9.149       8.508       7.644       6.380       4.665       2.512      5.9204E-03
   4   10.000       9.809       9.533       9.049       8.191       7.544       6.357       4.661       2.511      5.9186E-03
   5   10.000       9.803       9.494       8.794       6.669       7.285       6.317       4.655       2.510      5.9167E-03
   6   10.000       9.809       9.533       9.049       8.191       7.544       6.357       4.661       2.511      5.9186E-03
   7   10.000       9.813       9.556       9.149       8.508       7.644       6.380       4.665       2.512      5.9204E-03
   8   10.000       9.815       9.564       9.175       8.567       7.669       6.387       4.667       2.512      5.9211E-03
   9   10.000       9.815       9.566       9.180       8.578       7.675       6.389       4.667       2.512      5.9214E-03
  10   10.000       9.815       9.566       9.181       8.580       7.676       6.389       4.667       2.512      5.9215E-03
1
              HEAD IN LAYER   4 AT END OF TIME STEP  10 IN STRESS PERIOD    3
  ---------------------------------------------------------------------------

            1           2           3           4           5           6           7           8           9          10
 ........................................................................................................................
   1   10.000       9.813       9.562       9.174       8.569       7.664       6.377       4.655       2.503      5.9824E-03
   2   10.000       9.813       9.560       9.168       8.558       7.658       6.375       4.655       2.503      5.9821E-03
   3   10.000       9.811       9.552       9.140       8.495       7.631       6.367       4.653       2.502      5.9812E-03
   4   10.000       9.806       9.527       9.035       8.170       7.525       6.343       4.648       2.502      5.9793E-03
   5   10.000       9.800       9.485       8.775       6.816       7.263       6.301       4.642       2.501      5.9772E-03
   6   10.000       9.806       9.527       9.035       8.170       7.525       6.343       4.648       2.502      5.9793E-03
   7   10.000       9.811       9.552       9.140       8.495       7.631       6.367       4.653       2.502      5.9812E-03
   8   10.000       9.813       9.560       9.168       8.558       7.658       6.375       4.655       2.503      5.9821E-03
   9   10.000       9.813       9.562       9.174       8.570       7.665       6.377       4.655       2.503      5.9824E-03
  10   10.000       9.814       9.563       9.175       8.572       7.666       6.378       4.656       2.503      5.9825E-03
1
              HEAD IN LAYER   5 AT END OF TIME STEP  10 IN STRESS PERIOD    3
  ---------------------------------------------------------------------------

            1           2           3           4           5           6           7           8           9          10
 ........................................................................................................................
   1   10.000       9.813       9.560       9.171       8.565       7.659       6.371       4.649       2.498      5.9814E-03
   2   10.000       9.812       9.558       9.165       8.553       7.653       6.369       4.649       2.498      5.9812E-03
   3   10.000       9.810       9.549       9.136       8.488       7.624       6.361       4.647       2.498      5.9802E-03
   4   10.000       9.805       9.524       9.028       8.161       7.516       6.335       4.642       2.497      5.9782E-03
   5   10.000       9.798       9.481       8.767       6.886       7.252       6.292       4.635       2.496      5.9760E-03
   6   10.000       9.805       9.524       9.028       8.161       7.516       6.335       4.642       2.497      5.9782E-03
   7   10.000       9.810       9.549       9.136       8.488       7.624       6.361       4.647       2.498      5.9802E-03
   8   10.000       9.812       9.558       9.165       8.553       7.653       6.369       4.649       2.498      5.9812E-03
   9   10.000       9.813       9.560       9.171       8.566       7.659       6.371       4.650       2.498      5.9815E-03
  10   10.000       9.813       9.561       9.172       8.568       7.660       6.372       4.650       2.498      5.9815E-03

 HEAD WILL BE SAVED ON UNIT   51 AT END OF TIME STEP   10, STRESS PERIOD    3

 DRAWDOWN WILL BE SAVED ON UNIT   52 AT END OF TIME STEP   10, STRESS PERIOD    3
1
  VOLUMETRIC BUDGET FOR ENTIRE MODEL AT END OF TIME STEP   10, STRESS PERIOD   3
  ------------------------------------------------------------------------------

     CUMULATIVE VOLUMES      L**3       RATES FOR THIS TIME STEP      L**3/T
     ------------------                 ------------------------

           IN:                                      IN:
           ---                                      ---
             STORAGE =      334210.4688               STORAGE =        1660.7784
       CONSTANT HEAD =           0.0000         CONSTANT HEAD =           0.0000
               WELLS =           0.0000                 WELLS =           0.0000
     HEAD DEP BOUNDS =        3406.0728       HEAD DEP BOUNDS =         111.6466

            TOTAL IN =      337616.5312              TOTAL IN =        1772.4250

          OUT:                                     OUT:
          ----                                     ----
             STORAGE =           0.0000               STORAGE =           0.0000
       CONSTANT HEAD =           0.0000         CONSTANT HEAD =           0.0000
               WELLS =        5000.0000                 WELLS =         500.0000
     HEAD DEP BOUNDS =      332617.1875       HEAD DEP BOUNDS =        1272.4595

           TOTAL OUT =      337617.1875             TOTAL OUT =        1772.4595

            IN - OUT =          -0.6562              IN - OUT =      -3.4424E-02

 PERCENT DISCREPANCY =          -0.00     PERCENT DISCREPANCY =          -0.00






         TIME SUMMARY AT END OF TIME STEP   10 IN STRESS PERIOD    3
                    SECONDS     MINUTES      HOURS       DAYS        YEARS
                    -----------------------------------------------------------
   TIME STEP LENGTH  86400.      1440.0      24.000      1.0000     2.73785E-03
 STRESS PERIOD TIME 8.64000E+05  14400.      240.00      10.000     2.73785E-02
         TOTAL TIME 9.59040E+06 1.59840E+05  2664.0      111.00     0.30390    
1
 
 SOLVING FOR HEAD 

 OUTPUT CONTROL FOR STRESS PERIOD    3   TIME STEP   11
    SAVE HEAD FOR ALL LAYERS
    SAVE DRAWDOWN FOR ALL LAYERS
    SAVE BUDGET
    PRINT HEAD FOR ALL LAYERS
    PRINT BUDGET
 UBDSV1 SAVING "         STORAGE" ON UNIT  53 AT TIME STEP 11, STRESS PERIOD   3
 UBDSV2 SAVING "   CONSTANT HEAD" ON UNIT  53 AT TIME STEP 11, STRESS PERIOD   3
 UBDSV1 SAVING "FLOW RIGHT FACE " ON UNIT  53 AT TIME STEP 11, STRESS PERIOD   3
 UBDSV1 SAVING "FLOW FRONT FACE " ON UNIT  53 AT TIME STEP 11, STRESS PERIOD   3
 UBDSV1 SAVING "FLOW LOWER FACE " ON UNIT  53 AT TIME STEP 11, STRESS PERIOD   3
1
              HEAD IN LAYER   1 AT END OF TIME STEP  11 IN STRESS PERIOD    3
  ---------------------------------------------------------------------------

            1           2           3           4           5           6           7           8           9          10
 ........................................................................................................................
   1   10.000       9.818       9.571       9.188       8.590       7.690       6.406       4.685       2.529      2.2642E-03
   2   10.000       9.817       9.569       9.183       8.580       7.685       6.405       4.685       2.529      2.2641E-03
   3   10.000       9.816       9.562       9.160       8.525       7.661       6.398       4.683       2.529      2.2637E-03
   4   10.000       9.812       9.542       9.068       8.216       7.569       6.377       4.679       2.528      2.2631E-03
   5   10.000       9.806       9.505       8.818       6.023       7.311       6.339       4.674       2.527      2.2623E-03
   6   10.000       9.812       9.542       9.068       8.216       7.569       6.377       4.679       2.528      2.2631E-03
   7   10.000       9.816       9.562       9.160       8.525       7.661       6.398       4.683       2.529      2.2637E-03
   8   10.000       9.817       9.569       9.184       8.580       7.685       6.405       4.685       2.529      2.2641E-03
   9   10.000       9.818       9.571       9.189       8.590       7.690       6.406       4.685       2.529      2.2642E-03
  10   10.000       9.818       9.571       9.190       8.592       7.691       6.407       4.685       2.529      2.2642E-03
1
              HEAD IN LAYER   2 AT END OF TIME STEP  11 IN STRESS PERIOD    3
  ---------------------------------------------------------------------------

            1           2           3           4           5           6           7           8           9          10
 ........................................................................................................................
   1   10.000       9.814       9.564       9.177       8.574       7.671       6.386       4.667       2.516      5.2703E-03
   2   10.000       9.814       9.561       9.171       8.563       7.665       6.384       4.666       2.516      5.2700E-03
   3   10.000       9.812       9.553       9.143       8.500       7.638       6.376       4.664       2.515      5.2693E-03
   4   10.000       9.807       9.529       9.040       8.169       7.534       6.352       4.660       2.514      5.2676E-03
   5   10.000       9.801       9.488       8.773       6.311       7.262       6.311       4.654       2.513      5.2657E-03
   6   10.000       9.807       9.529       9.040       8.169       7.534       6.352       4.660       2.514      5.2676E-03
   7   10.000       9.812       9.553       9.143       8.500       7.638       6.376       4.664       2.515      5.2693E-03
   8   10.000       9.814       9.561       9.171       8.563       7.665       6.384       4.666       2.516      5.2701E-03
   9   10.000       9.814       9.564       9.177       8.574       7.671       6.386       4.667       2.516      5.2703E-03
  10   10.000       9.814       9.564       9.178       8.576       7.672       6.387       4.667       2.516      5.2704E-03
1
              HEAD IN LAYER   3 AT END OF TIME STEP  11 IN STRESS PERIOD    3
  ---------------------------------------------------------------------------

            1           2           3           4           5           6           7           8           9          10
 ........................................................................................................................
   1   10.000       9.811       9.558       9.168       8.561       7.655       6.368       4.649       2.501      5.8951E-03
   2   10.000       9.811       9.555       9.161       8.549       7.648       6.366       4.649       2.501      5.8948E-03
   3   10.000       9.809       9.546       9.130       8.480       7.618       6.357       4.646       2.501      5.8938E-03
   4   10.000       9.803       9.519       9.018       8.135       7.505       6.330       4.641       2.500      5.8916E-03
   5   10.000       9.796       9.475       8.743       6.552       7.226       6.285       4.634       2.499      5.8893E-03
   6   10.000       9.803       9.519       9.018       8.135       7.505       6.330       4.641       2.500      5.8916E-03
   7   10.000       9.809       9.546       9.130       8.480       7.618       6.357       4.646       2.501      5.8938E-03
   8   10.000       9.811       9.556       9.161       8.549       7.648       6.366       4.649       2.501      5.8948E-03
   9   10.000       9.811       9.558       9.168       8.561       7.655       6.368       4.649       2.501      5.8951E-03
  10   10.000       9.812       9.559       9.169       8.564       7.656       6.369       4.649       2.501      5.8952E-03
1
              HEAD IN LAYER   4 AT END OF TIME STEP  11 IN STRESS PERIOD    3
  ---------------------------------------------------------------------------

            1           2           3           4           5           6           7           8           9          10
 ........................................................................................................................
   1   10.000       9.810       9.554       9.161       8.552       7.644       6.356       4.637       2.492      5.9560E-03
   2   10.000       9.809       9.551       9.154       8.539       7.637       6.354       4.637       2.492      5.9556E-03
   3   10.000       9.807       9.542       9.122       8.467       7.605       6.344       4.634       2.491      5.9545E-03
   4   10.000       9.801       9.513       9.003       8.115       7.486       6.316       4.629       2.490      5.9521E-03
   5   10.000       9.793       9.466       8.724       6.704       7.204       6.268       4.621       2.489      5.9496E-03
   6   10.000       9.801       9.513       9.003       8.115       7.486       6.316       4.629       2.490      5.9521E-03
   7   10.000       9.807       9.542       9.122       8.467       7.605       6.344       4.634       2.491      5.9545E-03
   8   10.000       9.809       9.552       9.154       8.539       7.637       6.354       4.637       2.492      5.9557E-03
   9   10.000       9.810       9.554       9.162       8.553       7.645       6.356       4.637       2.492      5.9560E-03
  10   10.000       9.810       9.555       9.163       8.555       7.646       6.357       4.638       2.492      5.9561E-03
1
              HEAD IN LAYER   5 AT END OF TIME STEP  11 IN STRESS PERIOD    3
  ---------------------------------------------------------------------------

            1           2           3           4           5           6           7           8           9          10
 ........................................................................................................................
   1   10.000       9.809       9.552       9.158       8.548       7.639       6.350       4.631       2.487      5.9552E-03
   2   10.000       9.808       9.549       9.151       8.534       7.632       6.348       4.631       2.487      5.9548E-03
   3   10.000       9.806       9.539       9.117       8.461       7.598       6.338       4.628       2.487      5.9536E-03
   4   10.000       9.800       9.510       8.996       8.106       7.477       6.308       4.622       2.485      5.9511E-03
   5   10.000       9.792       9.462       8.716       6.778       7.193       6.260       4.615       2.484      5.9484E-03
   6   10.000       9.800       9.510       8.996       8.106       7.477       6.308       4.622       2.485      5.9511E-03
   7   10.000       9.806       9.539       9.117       8.461       7.598       6.338       4.628       2.487      5.9536E-03
   8   10.000       9.808       9.550       9.151       8.534       7.632       6.348       4.631       2.487      5.9548E-03
   9   10.000       9.809       9.552       9.159       8.549       7.639       6.350       4.632       2.487      5.9552E-03
  10   10.000       9.809       9.553       9.160       8.551       7.641       6.351       4.632       2.487      5.9553E-03

 HEAD WILL BE SAVED ON UNIT   51 AT END OF TIME STEP   11, STRESS PERIOD    3

 DRAWDOWN WILL BE SAVED ON UNIT   52 AT END OF TIME STEP   11, STRESS PERIOD    3
1
  VOLUMETRIC BUDGET FOR ENTIRE MODEL AT END OF TIME STEP   11, STRESS PERIOD   3
  ------------------------------------------------------------------------------

     CUMULATIVE VOLUMES      L**3       RATES FOR THIS TIME STEP      L**3/T
     ------------------                 ------------------------

           IN:                                      IN:
           ---                                      ---
             STORAGE =      335862.8438               STORAGE =        1652.3711
       CONSTANT HEAD =           0.0000         CONSTANT HEAD =           0.0000
               WELLS =           0.0000                 WELLS =           0.0000
     HEAD DEP BOUNDS =        3520.3601       HEAD DEP BOUNDS =         114.2874

            TOTAL IN =      339383.2188              TOTAL IN =        1766.6584

          OUT:                                     OUT:
          ----                                     ----
             STORAGE =           0.0000               STORAGE =           0.0000
       CONSTANT HEAD =           0.0000         CONSTANT HEAD =           0.0000
               WELLS =        5500.0000                 WELLS =         500.0000
     HEAD DEP BOUNDS =      333883.8750       HEAD DEP BOUNDS =        1266.6888

           TOTAL OUT =      339383.8750             TOTAL OUT =        1766.6888

            IN - OUT =          -0.6562              IN - OUT =      -3.0396E-02

 PERCENT DISCREPANCY =          -0.00     PERCENT DISCREPANCY =          -0.00






         TIME SUMMARY AT END OF TIME STEP   11 IN STRESS PERIOD    3
                    SECONDS     MINUTES      HOURS       DAYS        YEARS
                    -----------------------------------------------------------
   TIME STEP LENGTH  86400.      1440.0      24.000      1.0000     2.73785E-03
 STRESS PERIOD TIME 9.50400E+05  15840.      264.00      11.000     3.01164E-02
         TOTAL TIME 9.67680E+06 1.61280E+05  2688.0      112.00     0.30664    
1
 
 SOLVING FOR HEAD 

 OUTPUT CONTROL FOR STRESS PERIOD    3   TIME STEP   12
    SAVE HEAD FOR ALL LAYERS
    SAVE DRAWDOWN FOR ALL LAYERS
    SAVE BUDGET
    PRINT HEAD FOR ALL LAYERS
    PRINT BUDGET
 UBDSV1 SAVING "         STORAGE" ON UNIT  53 AT TIME STEP 12, STRESS PERIOD   3
 UBDSV2 SAVING "   CONSTANT HEAD" ON UNIT  53 AT TIME STEP 12, STRESS PERIOD   3
 UBDSV1 SAVING "FLOW RIGHT FACE " ON UNIT  53 AT TIME STEP 12, STRESS PERIOD   3
 UBDSV1 SAVING "FLOW FRONT FACE " ON UNIT  53 AT TIME STEP 12, STRESS PERIOD   3
 UBDSV1 SAVING "FLOW LOWER FACE " ON UNIT  53 AT TIME STEP 12, STRESS PERIOD   3
1
              HEAD IN LAYER   1 AT END OF TIME STEP  12 IN STRESS PERIOD    3
  ---------------------------------------------------------------------------

            1           2           3           4           5           6           7           8           9          10
 ........................................................................................................................
   1   10.000       9.814       9.563       9.176       8.573       7.670       6.385       4.667       2.518      2.2532E-03
   2   10.000       9.813       9.561       9.170       8.561       7.664       6.383       4.666       2.517      2.2530E-03
   3   10.000       9.811       9.553       9.142       8.498       7.636       6.375       4.664       2.517      2.2527E-03
   4   10.000       9.807       9.528       9.038       8.161       7.530       6.350       4.659       2.516      2.2518E-03
   5   10.000       9.800       9.487       8.767       5.899       7.251       6.308       4.653       2.515      2.2508E-03
   6   10.000       9.807       9.528       9.038       8.161       7.530       6.350       4.659       2.516      2.2518E-03
   7   10.000       9.811       9.553       9.142       8.498       7.636       6.375       4.664       2.517      2.2527E-03
   8   10.000       9.813       9.561       9.170       8.562       7.664       6.383       4.666       2.517      2.2530E-03
   9   10.000       9.814       9.563       9.176       8.573       7.670       6.385       4.667       2.518      2.2532E-03
  10   10.000       9.814       9.564       9.178       8.575       7.671       6.386       4.667       2.518      2.2532E-03
1
              HEAD IN LAYER   2 AT END OF TIME STEP  12 IN STRESS PERIOD    3
  ---------------------------------------------------------------------------

            1           2           3           4           5           6           7           8           9          10
 ........................................................................................................................
   1   10.000       9.810       9.556       9.164       8.557       7.651       6.365       4.649       2.504      5.2468E-03
   2   10.000       9.810       9.553       9.157       8.544       7.644       6.363       4.648       2.504      5.2464E-03
   3   10.000       9.807       9.543       9.125       8.473       7.612       6.353       4.646       2.504      5.2455E-03
   4   10.000       9.802       9.515       9.009       8.114       7.495       6.325       4.640       2.503      5.2433E-03
   5   10.000       9.794       9.469       8.722       6.195       7.203       6.279       4.633       2.502      5.2411E-03
   6   10.000       9.802       9.515       9.009       8.114       7.495       6.325       4.640       2.503      5.2433E-03
   7   10.000       9.807       9.543       9.125       8.473       7.612       6.353       4.646       2.504      5.2455E-03
   8   10.000       9.810       9.553       9.157       8.544       7.644       6.363       4.648       2.504      5.2464E-03
   9   10.000       9.810       9.556       9.165       8.557       7.651       6.365       4.649       2.504      5.2468E-03
  10   10.000       9.811       9.556       9.166       8.560       7.653       6.366       4.649       2.505      5.2469E-03
1
              HEAD IN LAYER   3 AT END OF TIME STEP  12 IN STRESS PERIOD    3
  ---------------------------------------------------------------------------

            1           2           3           4           5           6           7           8           9          10
 ........................................................................................................................
   1   10.000       9.808       9.550       9.155       8.544       7.635       6.347       4.631       2.490      5.8692E-03
   2   10.000       9.807       9.547       9.147       8.529       7.627       6.345       4.630       2.490      5.8688E-03
   3   10.000       9.804       9.536       9.112       8.453       7.592       6.334       4.628       2.490      5.8675E-03
   4   10.000       9.798       9.505       8.987       8.081       7.466       6.303       4.621       2.488      5.8648E-03
   5   10.000       9.790       9.456       8.693       6.444       7.167       6.253       4.613       2.487      5.8620E-03
   6   10.000       9.798       9.505       8.987       8.081       7.466       6.303       4.621       2.488      5.8648E-03
   7   10.000       9.804       9.536       9.112       8.453       7.592       6.334       4.628       2.490      5.8675E-03
   8   10.000       9.807       9.547       9.147       8.530       7.627       6.345       4.630       2.490      5.8688E-03
   9   10.000       9.808       9.550       9.155       8.545       7.635       6.348       4.631       2.490      5.8692E-03
  10   10.000       9.808       9.551       9.157       8.547       7.637       6.348       4.631       2.490      5.8693E-03
1
              HEAD IN LAYER   4 AT END OF TIME STEP  12 IN STRESS PERIOD    3
  ---------------------------------------------------------------------------

            1           2           3           4           5           6           7           8           9          10
 ........................................................................................................................
   1   10.000       9.806       9.546       9.149       8.535       7.624       6.336       4.619       2.481      5.9300E-03
   2   10.000       9.805       9.543       9.140       8.520       7.616       6.333       4.619       2.481      5.9295E-03
   3   10.000       9.802       9.531       9.103       8.439       7.578       6.321       4.616       2.480      5.9281E-03
   4   10.000       9.795       9.498       8.972       8.061       7.447       6.288       4.609       2.479      5.9251E-03
   5   10.000       9.787       9.447       8.675       6.601       7.146       6.236       4.600       2.478      5.9221E-03
   6   10.000       9.795       9.498       8.972       8.061       7.447       6.288       4.609       2.479      5.9251E-03
   7   10.000       9.802       9.531       9.103       8.439       7.578       6.321       4.616       2.480      5.9281E-03
   8   10.000       9.805       9.543       9.140       8.520       7.616       6.333       4.619       2.481      5.9295E-03
   9   10.000       9.806       9.546       9.149       8.536       7.625       6.336       4.620       2.481      5.9300E-03
  10   10.000       9.806       9.547       9.151       8.539       7.627       6.337       4.620       2.481      5.9302E-03
1
              HEAD IN LAYER   5 AT END OF TIME STEP  12 IN STRESS PERIOD    3
  ---------------------------------------------------------------------------

            1           2           3           4           5           6           7           8           9          10
 ........................................................................................................................
   1   10.000       9.805       9.544       9.146       8.531       7.619       6.330       4.614       2.476      5.9292E-03
   2   10.000       9.804       9.541       9.137       8.515       7.610       6.327       4.613       2.476      5.9287E-03
   3   10.000       9.801       9.529       9.098       8.433       7.572       6.315       4.610       2.476      5.9273E-03
   4   10.000       9.794       9.495       8.964       8.052       7.437       6.281       4.603       2.474      5.9242E-03
   5   10.000       9.785       9.442       8.667       6.677       7.136       6.228       4.594       2.473      5.9210E-03
   6   10.000       9.794       9.495       8.964       8.052       7.437       6.281       4.603       2.474      5.9242E-03
   7   10.000       9.801       9.529       9.098       8.433       7.572       6.315       4.610       2.476      5.9273E-03
   8   10.000       9.804       9.541       9.137       8.515       7.610       6.327       4.613       2.476      5.9287E-03
   9   10.000       9.805       9.544       9.146       8.532       7.620       6.330       4.614       2.476      5.9293E-03
  10   10.000       9.805       9.545       9.148       8.535       7.621       6.331       4.614       2.476      5.9294E-03

 HEAD WILL BE SAVED ON UNIT   51 AT END OF TIME STEP   12, STRESS PERIOD    3

 DRAWDOWN WILL BE SAVED ON UNIT   52 AT END OF TIME STEP   12, STRESS PERIOD    3
1
  VOLUMETRIC BUDGET FOR ENTIRE MODEL AT END OF TIME STEP   12, STRESS PERIOD   3
  ------------------------------------------------------------------------------

     CUMULATIVE VOLUMES      L**3       RATES FOR THIS TIME STEP      L**3/T
     ------------------                 ------------------------

           IN:                                      IN:
           ---                                      ---
             STORAGE =      337506.7812               STORAGE =        1643.9520
       CONSTANT HEAD =           0.0000         CONSTANT HEAD =           0.0000
               WELLS =           0.0000                 WELLS =           0.0000
     HEAD DEP BOUNDS =        3637.3528       HEAD DEP BOUNDS =         116.9926

            TOTAL IN =      341144.1250              TOTAL IN =        1760.9446

          OUT:                                     OUT:
          ----                                     ----
             STORAGE =           0.0000               STORAGE =           0.0000
       CONSTANT HEAD =           0.0000         CONSTANT HEAD =           0.0000
               WELLS =        6000.0000                 WELLS =         500.0000
     HEAD DEP BOUNDS =      335144.8438       HEAD DEP BOUNDS =        1260.9806

           TOTAL OUT =      341144.8438             TOTAL OUT =        1760.9806

            IN - OUT =          -0.7188              IN - OUT =      -3.6011E-02

 PERCENT DISCREPANCY =          -0.00     PERCENT DISCREPANCY =          -0.00






         TIME SUMMARY AT END OF TIME STEP   12 IN STRESS PERIOD    3
                    SECONDS     MINUTES      HOURS       DAYS        YEARS
                    -----------------------------------------------------------
   TIME STEP LENGTH  86400.      1440.0      24.000      1.0000     2.73785E-03
 STRESS PERIOD TIME 1.03680E+06  17280.      288.00      12.000     3.28542E-02
         TOTAL TIME 9.76320E+06 1.62720E+05  2712.0      113.00     0.30938    
1
 
 SOLVING FOR HEAD 

 OUTPUT CONTROL FOR STRESS PERIOD    3   TIME STEP   13
    SAVE HEAD FOR ALL LAYERS
    SAVE DRAWDOWN FOR ALL LAYERS
    SAVE BUDGET
    PRINT HEAD FOR ALL LAYERS
    PRINT BUDGET
 UBDSV1 SAVING "         STORAGE" ON UNIT  53 AT TIME STEP 13, STRESS PERIOD   3
 UBDSV2 SAVING "   CONSTANT HEAD" ON UNIT  53 AT TIME STEP 13, STRESS PERIOD   3
 UBDSV1 SAVING "FLOW RIGHT FACE " ON UNIT  53 AT TIME STEP 13, STRESS PERIOD   3
 UBDSV1 SAVING "FLOW FRONT FACE " ON UNIT  53 AT TIME STEP 13, STRESS PERIOD   3
 UBDSV1 SAVING "FLOW LOWER FACE " ON UNIT  53 AT TIME STEP 13, STRESS PERIOD   3
1
              HEAD IN LAYER   1 AT END OF TIME STEP  13 IN STRESS PERIOD    3
  ---------------------------------------------------------------------------

            1           2           3           4           5           6           7           8           9          10
 ........................................................................................................................
   1   10.000       9.810       9.555       9.164       8.556       7.650       6.364       4.649       2.506      2.2425E-03
   2   10.000       9.809       9.553       9.156       8.543       7.642       6.362       4.648       2.506      2.2422E-03
   3   10.000       9.807       9.543       9.124       8.471       7.610       6.352       4.646       2.506      2.2418E-03
   4   10.000       9.801       9.514       9.007       8.106       7.491       6.323       4.640       2.505      2.2407E-03
   5   10.000       9.794       9.468       8.717       5.784       7.193       6.276       4.632       2.504      2.2395E-03
   6   10.000       9.801       9.514       9.007       8.106       7.491       6.323       4.640       2.505      2.2407E-03
   7   10.000       9.807       9.543       9.124       8.471       7.610       6.352       4.646       2.506      2.2418E-03
   8   10.000       9.809       9.553       9.156       8.543       7.643       6.362       4.648       2.506      2.2422E-03
   9   10.000       9.810       9.555       9.164       8.556       7.650       6.365       4.649       2.506      2.2425E-03
  10   10.000       9.810       9.556       9.165       8.559       7.652       6.365       4.649       2.507      2.2426E-03
1
              HEAD IN LAYER   2 AT END OF TIME STEP  13 IN STRESS PERIOD    3
  ---------------------------------------------------------------------------

            1           2           3           4           5           6           7           8           9          10
 ........................................................................................................................
   1   10.000       9.807       9.548       9.152       8.540       7.631       6.344       4.631       2.493      5.2236E-03
   2   10.000       9.806       9.545       9.143       8.525       7.622       6.341       4.630       2.493      5.2231E-03
   3   10.000       9.803       9.533       9.106       8.445       7.586       6.330       4.627       2.493      5.2219E-03
   4   10.000       9.796       9.501       8.977       8.060       7.456       6.298       4.620       2.491      5.2193E-03
   5   10.000       9.788       9.450       8.673       6.087       7.145       6.247       4.612       2.490      5.2166E-03
   6   10.000       9.796       9.501       8.977       8.060       7.456       6.298       4.620       2.491      5.2193E-03
   7   10.000       9.803       9.533       9.106       8.445       7.586       6.330       4.627       2.493      5.2219E-03
   8   10.000       9.806       9.545       9.143       8.525       7.622       6.342       4.630       2.493      5.2231E-03
   9   10.000       9.807       9.548       9.152       8.540       7.631       6.345       4.631       2.493      5.2236E-03
  10   10.000       9.807       9.549       9.154       8.543       7.633       6.345       4.631       2.494      5.2237E-03
1
              HEAD IN LAYER   3 AT END OF TIME STEP  13 IN STRESS PERIOD    3
  ---------------------------------------------------------------------------

            1           2           3           4           5           6           7           8           9          10
 ........................................................................................................................
   1   10.000       9.804       9.542       9.142       8.527       7.615       6.327       4.613       2.479      5.8436E-03
   2   10.000       9.803       9.538       9.133       8.510       7.606       6.323       4.612       2.479      5.8431E-03
   3   10.000       9.800       9.525       9.093       8.425       7.565       6.311       4.609       2.479      5.8415E-03
   4   10.000       9.792       9.490       8.955       8.027       7.427       6.276       4.602       2.477      5.8382E-03
   5   10.000       9.783       9.436       8.644       6.343       7.110       6.221       4.593       2.476      5.8349E-03
   6   10.000       9.792       9.490       8.955       8.027       7.427       6.276       4.602       2.477      5.8382E-03
   7   10.000       9.800       9.525       9.093       8.425       7.565       6.311       4.609       2.479      5.8415E-03
   8   10.000       9.803       9.538       9.133       8.510       7.606       6.324       4.612       2.479      5.8431E-03
   9   10.000       9.804       9.542       9.143       8.528       7.615       6.327       4.613       2.480      5.8436E-03
  10   10.000       9.804       9.543       9.145       8.531       7.618       6.328       4.614       2.480      5.8438E-03
1
              HEAD IN LAYER   4 AT END OF TIME STEP  13 IN STRESS PERIOD    3
  ---------------------------------------------------------------------------

            1           2           3           4           5           6           7           8           9          10
 ........................................................................................................................
   1   10.000       9.802       9.538       9.136       8.518       7.604       6.315       4.602       2.470      5.9043E-03
   2   10.000       9.801       9.534       9.126       8.501       7.594       6.311       4.601       2.470      5.9037E-03
   3   10.000       9.797       9.520       9.084       8.411       7.552       6.298       4.597       2.469      5.9019E-03
   4   10.000       9.789       9.483       8.940       8.008       7.407       6.261       4.589       2.468      5.8983E-03
   5   10.000       9.780       9.427       8.626       6.505       7.089       6.204       4.580       2.466      5.8948E-03
   6   10.000       9.789       9.483       8.940       8.008       7.407       6.261       4.589       2.468      5.8983E-03
   7   10.000       9.797       9.521       9.084       8.411       7.552       6.298       4.597       2.469      5.9019E-03
   8   10.000       9.801       9.534       9.126       8.501       7.595       6.312       4.601       2.470      5.9037E-03
   9   10.000       9.802       9.538       9.137       8.519       7.605       6.315       4.602       2.470      5.9043E-03
  10   10.000       9.802       9.539       9.139       8.523       7.607       6.316       4.602       2.470      5.9045E-03
1
              HEAD IN LAYER   5 AT END OF TIME STEP  13 IN STRESS PERIOD    3
  ---------------------------------------------------------------------------

            1           2           3           4           5           6           7           8           9          10
 ........................................................................................................................
   1   10.000       9.801       9.536       9.133       8.514       7.599       6.309       4.596       2.466      5.9036E-03
   2   10.000       9.800       9.532       9.123       8.496       7.589       6.306       4.595       2.465      5.9030E-03
   3   10.000       9.796       9.518       9.079       8.404       7.545       6.292       4.591       2.465      5.9011E-03
   4   10.000       9.788       9.480       8.932       7.999       7.398       6.253       4.583       2.463      5.8974E-03
   5   10.000       9.779       9.423       8.618       6.584       7.079       6.196       4.573       2.462      5.8938E-03
   6   10.000       9.788       9.480       8.932       7.999       7.398       6.253       4.583       2.463      5.8974E-03
   7   10.000       9.796       9.518       9.079       8.405       7.545       6.292       4.591       2.465      5.9011E-03
   8   10.000       9.800       9.532       9.123       8.496       7.589       6.306       4.595       2.465      5.9030E-03
   9   10.000       9.801       9.536       9.134       8.515       7.600       6.310       4.596       2.466      5.9037E-03
  10   10.000       9.801       9.537       9.136       8.519       7.602       6.311       4.596       2.466      5.9038E-03

 HEAD WILL BE SAVED ON UNIT   51 AT END OF TIME STEP   13, STRESS PERIOD    3

 DRAWDOWN WILL BE SAVED ON UNIT   52 AT END OF TIME STEP   13, STRESS PERIOD    3
1
  VOLUMETRIC BUDGET FOR ENTIRE MODEL AT END OF TIME STEP   13, STRESS PERIOD   3
  ------------------------------------------------------------------------------

     CUMULATIVE VOLUMES      L**3       RATES FOR THIS TIME STEP      L**3/T
     ------------------                 ------------------------

           IN:                                      IN:
           ---                                      ---
             STORAGE =      339142.3438               STORAGE =        1635.5553
       CONSTANT HEAD =           0.0000         CONSTANT HEAD =           0.0000
               WELLS =           0.0000                 WELLS =           0.0000
     HEAD DEP BOUNDS =        3757.0942       HEAD DEP BOUNDS =         119.7415

            TOTAL IN =      342899.4375              TOTAL IN =        1755.2968

          OUT:                                     OUT:
          ----                                     ----
             STORAGE =           0.0000               STORAGE =           0.0000
       CONSTANT HEAD =           0.0000         CONSTANT HEAD =           0.0000
               WELLS =        6500.0000                 WELLS =         500.0000
     HEAD DEP BOUNDS =      336400.1875       HEAD DEP BOUNDS =        1255.3383

           TOTAL OUT =      342900.1875             TOTAL OUT =        1755.3383

            IN - OUT =          -0.7500              IN - OUT =      -4.1504E-02

 PERCENT DISCREPANCY =          -0.00     PERCENT DISCREPANCY =          -0.00






         TIME SUMMARY AT END OF TIME STEP   13 IN STRESS PERIOD    3
                    SECONDS     MINUTES      HOURS       DAYS        YEARS
                    -----------------------------------------------------------
   TIME STEP LENGTH  86400.      1440.0      24.000      1.0000     2.73785E-03
 STRESS PERIOD TIME 1.12320E+06  18720.      312.00      13.000     3.55921E-02
         TOTAL TIME 9.84960E+06 1.64160E+05  2736.0      114.00     0.31211    
1
 
 SOLVING FOR HEAD 

 OUTPUT CONTROL FOR STRESS PERIOD    3   TIME STEP   14
    SAVE HEAD FOR ALL LAYERS
    SAVE DRAWDOWN FOR ALL LAYERS
    SAVE BUDGET
    PRINT HEAD FOR ALL LAYERS
    PRINT BUDGET
 UBDSV1 SAVING "         STORAGE" ON UNIT  53 AT TIME STEP 14, STRESS PERIOD   3
 UBDSV2 SAVING "   CONSTANT HEAD" ON UNIT  53 AT TIME STEP 14, STRESS PERIOD   3
 UBDSV1 SAVING "FLOW RIGHT FACE " ON UNIT  53 AT TIME STEP 14, STRESS PERIOD   3
 UBDSV1 SAVING "FLOW FRONT FACE " ON UNIT  53 AT TIME STEP 14, STRESS PERIOD   3
 UBDSV1 SAVING "FLOW LOWER FACE " ON UNIT  53 AT TIME STEP 14, STRESS PERIOD   3
1
              HEAD IN LAYER   1 AT END OF TIME STEP  14 IN STRESS PERIOD    3
  ---------------------------------------------------------------------------

            1           2           3           4           5           6           7           8           9          10
 ........................................................................................................................
   1   10.000       9.806       9.547       9.151       8.539       7.630       6.344       4.631       2.495      2.2317E-03
   2   10.000       9.805       9.544       9.142       8.523       7.621       6.341       4.630       2.495      2.2315E-03
   3   10.000       9.803       9.532       9.105       8.443       7.584       6.329       4.627       2.495      2.2309E-03
   4   10.000       9.796       9.500       8.975       8.052       7.452       6.296       4.620       2.493      2.2295E-03
   5   10.000       9.787       9.449       8.667       5.678       7.135       6.244       4.611       2.492      2.2282E-03
   6   10.000       9.796       9.500       8.975       8.052       7.452       6.296       4.620       2.493      2.2295E-03
   7   10.000       9.803       9.532       9.105       8.443       7.584       6.329       4.627       2.495      2.2309E-03
   8   10.000       9.805       9.544       9.142       8.524       7.621       6.341       4.630       2.495      2.2315E-03
   9   10.000       9.806       9.548       9.152       8.540       7.630       6.344       4.631       2.495      2.2317E-03
  10   10.000       9.807       9.548       9.153       8.543       7.632       6.345       4.631       2.496      2.2318E-03
1
              HEAD IN LAYER   2 AT END OF TIME STEP  14 IN STRESS PERIOD    3
  ---------------------------------------------------------------------------

            1           2           3           4           5           6           7           8           9          10
 ........................................................................................................................
   1   10.000       9.803       9.540       9.139       8.523       7.611       6.324       4.613       2.483      5.2006E-03
   2   10.000       9.802       9.536       9.129       8.505       7.601       6.320       4.612       2.482      5.2001E-03
   3   10.000       9.798       9.522       9.087       8.417       7.559       6.307       4.608       2.482      5.1986E-03
   4   10.000       9.790       9.486       8.946       8.007       7.417       6.271       4.601       2.480      5.1954E-03
   5   10.000       9.781       9.431       8.625       5.986       7.089       6.215       4.591       2.479      5.1923E-03
   6   10.000       9.790       9.486       8.946       8.007       7.417       6.271       4.601       2.480      5.1954E-03
   7   10.000       9.798       9.522       9.087       8.417       7.559       6.307       4.609       2.482      5.1986E-03
   8   10.000       9.802       9.536       9.129       8.505       7.601       6.320       4.612       2.482      5.2001E-03
   9   10.000       9.803       9.540       9.140       8.524       7.611       6.324       4.613       2.483      5.2007E-03
  10   10.000       9.803       9.541       9.142       8.527       7.614       6.325       4.613       2.483      5.2008E-03
1
              HEAD IN LAYER   3 AT END OF TIME STEP  14 IN STRESS PERIOD    3
  ---------------------------------------------------------------------------

            1           2           3           4           5           6           7           8           9          10
 ........................................................................................................................
   1   10.000       9.800       9.534       9.130       8.510       7.595       6.306       4.596       2.469      5.8183E-03
   2   10.000       9.799       9.530       9.119       8.491       7.584       6.302       4.595       2.468      5.8176E-03
   3   10.000       9.795       9.515       9.073       8.397       7.539       6.288       4.591       2.468      5.8157E-03
   4   10.000       9.786       9.475       8.923       7.975       7.387       6.248       4.582       2.466      5.8118E-03
   5   10.000       9.776       9.417       8.596       6.249       7.055       6.189       4.572       2.464      5.8080E-03
   6   10.000       9.786       9.475       8.923       7.975       7.387       6.248       4.582       2.466      5.8118E-03
   7   10.000       9.795       9.515       9.073       8.397       7.539       6.288       4.591       2.468      5.8157E-03
   8   10.000       9.799       9.530       9.119       8.491       7.584       6.302       4.595       2.468      5.8176E-03
   9   10.000       9.800       9.534       9.131       8.511       7.596       6.307       4.596       2.469      5.8184E-03
  10   10.000       9.800       9.535       9.133       8.515       7.598       6.308       4.596       2.469      5.8186E-03
1
              HEAD IN LAYER   4 AT END OF TIME STEP  14 IN STRESS PERIOD    3
  ---------------------------------------------------------------------------

            1           2           3           4           5           6           7           8           9          10
 ........................................................................................................................
   1   10.000       9.798       9.530       9.124       8.501       7.585       6.295       4.584       2.460      5.8789E-03
   2   10.000       9.797       9.525       9.112       8.481       7.573       6.290       4.583       2.459      5.8781E-03
   3   10.000       9.793       9.510       9.064       8.383       7.525       6.275       4.579       2.458      5.8760E-03
   4   10.000       9.784       9.468       8.908       7.956       7.368       6.233       4.570       2.457      5.8717E-03
   5   10.000       9.773       9.408       8.579       6.415       7.034       6.172       4.559       2.455      5.8677E-03
   6   10.000       9.784       9.468       8.908       7.956       7.368       6.233       4.570       2.457      5.8717E-03
   7   10.000       9.793       9.510       9.064       8.383       7.525       6.275       4.579       2.458      5.8760E-03
   8   10.000       9.797       9.526       9.112       8.481       7.573       6.291       4.583       2.459      5.8782E-03
   9   10.000       9.798       9.530       9.124       8.502       7.585       6.295       4.584       2.460      5.8790E-03
  10   10.000       9.799       9.532       9.127       8.507       7.588       6.296       4.585       2.460      5.8792E-03
1
              HEAD IN LAYER   5 AT END OF TIME STEP  14 IN STRESS PERIOD    3
  ---------------------------------------------------------------------------

            1           2           3           4           5           6           7           8           9          10
 ........................................................................................................................
   1   10.000       9.797       9.528       9.121       8.497       7.579       6.289       4.579       2.455      5.8783E-03
   2   10.000       9.796       9.523       9.108       8.476       7.567       6.284       4.577       2.455      5.8775E-03
   3   10.000       9.792       9.507       9.059       8.376       7.518       6.268       4.573       2.454      5.8753E-03
   4   10.000       9.782       9.464       8.900       7.948       7.358       6.226       4.563       2.452      5.8708E-03
   5   10.000       9.772       9.403       8.571       6.496       7.024       6.163       4.552       2.450      5.8666E-03
   6   10.000       9.782       9.464       8.900       7.948       7.358       6.226       4.563       2.452      5.8708E-03
   7   10.000       9.792       9.507       9.059       8.376       7.518       6.268       4.573       2.454      5.8753E-03
   8   10.000       9.796       9.523       9.109       8.477       7.568       6.285       4.577       2.455      5.8775E-03
   9   10.000       9.797       9.528       9.121       8.498       7.580       6.289       4.579       2.455      5.8784E-03
  10   10.000       9.798       9.530       9.124       8.502       7.583       6.291       4.579       2.455      5.8786E-03

 HEAD WILL BE SAVED ON UNIT   51 AT END OF TIME STEP   14, STRESS PERIOD    3

 DRAWDOWN WILL BE SAVED ON UNIT   52 AT END OF TIME STEP   14, STRESS PERIOD    3
1
  VOLUMETRIC BUDGET FOR ENTIRE MODEL AT END OF TIME STEP   14, STRESS PERIOD   3
  ------------------------------------------------------------------------------

     CUMULATIVE VOLUMES      L**3       RATES FOR THIS TIME STEP      L**3/T
     ------------------                 ------------------------

           IN:                                      IN:
           ---                                      ---
             STORAGE =      340769.5000               STORAGE =        1627.1434
       CONSTANT HEAD =           0.0000         CONSTANT HEAD =           0.0000
               WELLS =           0.0000                 WELLS =           0.0000
     HEAD DEP BOUNDS =        3879.6477       HEAD DEP BOUNDS =         122.5534

            TOTAL IN =      344649.1562              TOTAL IN =        1749.6968

          OUT:                                     OUT:
          ----                                     ----
             STORAGE =           0.0000               STORAGE =           0.0000
       CONSTANT HEAD =           0.0000         CONSTANT HEAD =           0.0000
               WELLS =        7000.0000                 WELLS =         500.0000
     HEAD DEP BOUNDS =      337649.9375       HEAD DEP BOUNDS =        1249.7433

           TOTAL OUT =      344649.9375             TOTAL OUT =        1749.7433

            IN - OUT =          -0.7812              IN - OUT =      -4.6509E-02

 PERCENT DISCREPANCY =          -0.00     PERCENT DISCREPANCY =          -0.00






         TIME SUMMARY AT END OF TIME STEP   14 IN STRESS PERIOD    3
                    SECONDS     MINUTES      HOURS       DAYS        YEARS
                    -----------------------------------------------------------
   TIME STEP LENGTH  86400.      1440.0      24.000      1.0000     2.73785E-03
 STRESS PERIOD TIME 1.20960E+06  20160.      336.00      14.000     3.83299E-02
         TOTAL TIME 9.93600E+06 1.65600E+05  2760.0      115.00     0.31485    
1
 
 SOLVING FOR HEAD 

 OUTPUT CONTROL FOR STRESS PERIOD    3   TIME STEP   15
    SAVE HEAD FOR ALL LAYERS
    SAVE DRAWDOWN FOR ALL LAYERS
    SAVE BUDGET
    PRINT HEAD FOR ALL LAYERS
    PRINT BUDGET
 UBDSV1 SAVING "         STORAGE" ON UNIT  53 AT TIME STEP 15, STRESS PERIOD   3
 UBDSV2 SAVING "   CONSTANT HEAD" ON UNIT  53 AT TIME STEP 15, STRESS PERIOD   3
 UBDSV1 SAVING "FLOW RIGHT FACE " ON UNIT  53 AT TIME STEP 15, STRESS PERIOD   3
 UBDSV1 SAVING "FLOW FRONT FACE " ON UNIT  53 AT TIME STEP 15, STRESS PERIOD   3
 UBDSV1 SAVING "FLOW LOWER FACE " ON UNIT  53 AT TIME STEP 15, STRESS PERIOD   3
1
              HEAD IN LAYER   1 AT END OF TIME STEP  15 IN STRESS PERIOD    3
  ---------------------------------------------------------------------------

            1           2           3           4           5           6           7           8           9          10
 ........................................................................................................................
   1   10.000       9.803       9.539       9.138       8.522       7.610       6.323       4.613       2.485      2.2211E-03
   2   10.000       9.801       9.535       9.128       8.504       7.600       6.320       4.612       2.484      2.2209E-03
   3   10.000       9.798       9.522       9.086       8.415       7.557       6.306       4.608       2.483      2.2201E-03
   4   10.000       9.790       9.485       8.944       7.999       7.413       6.269       4.600       2.482      2.2185E-03
   5   10.000       9.781       9.430       8.619       5.579       7.078       6.211       4.591       2.480      2.2169E-03
   6   10.000       9.790       9.485       8.944       7.999       7.413       6.269       4.600       2.482      2.2185E-03
   7   10.000       9.798       9.522       9.086       8.415       7.557       6.306       4.608       2.483      2.2201E-03
   8   10.000       9.801       9.535       9.128       8.504       7.600       6.320       4.612       2.484      2.2209E-03
   9   10.000       9.803       9.540       9.139       8.523       7.611       6.324       4.613       2.485      2.2212E-03
  10   10.000       9.803       9.541       9.141       8.526       7.613       6.325       4.613       2.485      2.2212E-03
1
              HEAD IN LAYER   2 AT END OF TIME STEP  15 IN STRESS PERIOD    3
  ---------------------------------------------------------------------------

            1           2           3           4           5           6           7           8           9          10
 ........................................................................................................................
   1   10.000       9.799       9.532       9.126       8.506       7.591       6.304       4.595       2.472      5.1780E-03
   2   10.000       9.798       9.527       9.115       8.486       7.580       6.299       4.594       2.472      5.1773E-03
   3   10.000       9.793       9.511       9.068       8.389       7.533       6.284       4.590       2.471      5.1754E-03
   4   10.000       9.784       9.471       8.914       7.955       7.378       6.243       4.581       2.469      5.1717E-03
   5   10.000       9.774       9.411       8.578       5.893       7.033       6.182       4.570       2.467      5.1681E-03
   6   10.000       9.784       9.471       8.914       7.955       7.378       6.243       4.581       2.469      5.1717E-03
   7   10.000       9.793       9.511       9.068       8.389       7.533       6.284       4.590       2.471      5.1754E-03
   8   10.000       9.798       9.527       9.115       8.486       7.580       6.299       4.594       2.472      5.1773E-03
   9   10.000       9.799       9.532       9.127       8.507       7.592       6.304       4.595       2.472      5.1780E-03
  10   10.000       9.799       9.533       9.130       8.511       7.594       6.305       4.596       2.472      5.1782E-03
1
              HEAD IN LAYER   3 AT END OF TIME STEP  15 IN STRESS PERIOD    3
  ---------------------------------------------------------------------------

            1           2           3           4           5           6           7           8           9          10
 ........................................................................................................................
   1   10.000       9.796       9.526       9.117       8.493       7.575       6.286       4.578       2.458      5.7933E-03
   2   10.000       9.795       9.521       9.104       8.471       7.563       6.281       4.577       2.458      5.7925E-03
   3   10.000       9.790       9.504       9.054       8.369       7.512       6.265       4.572       2.457      5.7901E-03
   4   10.000       9.780       9.460       8.891       7.924       7.348       6.221       4.562       2.455      5.7855E-03
   5   10.000       9.769       9.397       8.549       6.161       7.000       6.157       4.551       2.453      5.7812E-03
   6   10.000       9.780       9.460       8.891       7.924       7.348       6.221       4.562       2.455      5.7855E-03
   7   10.000       9.790       9.504       9.054       8.369       7.512       6.265       4.572       2.457      5.7901E-03
   8   10.000       9.795       9.521       9.105       8.472       7.563       6.282       4.577       2.458      5.7925E-03
   9   10.000       9.796       9.526       9.118       8.494       7.576       6.287       4.578       2.458      5.7934E-03
  10   10.000       9.797       9.527       9.121       8.499       7.579       6.288       4.579       2.458      5.7937E-03
1
              HEAD IN LAYER   4 AT END OF TIME STEP  15 IN STRESS PERIOD    3
  ---------------------------------------------------------------------------

            1           2           3           4           5           6           7           8           9          10
 ........................................................................................................................
   1   10.000       9.794       9.522       9.111       8.484       7.565       6.275       4.567       2.449      5.8538E-03
   2   10.000       9.793       9.517       9.097       8.462       7.552       6.270       4.565       2.449      5.8529E-03
   3   10.000       9.788       9.498       9.044       8.355       7.498       6.252       4.561       2.448      5.8503E-03
   4   10.000       9.777       9.452       8.875       7.906       7.328       6.205       4.550       2.446      5.8453E-03
   5   10.000       9.766       9.388       8.533       6.331       6.980       6.139       4.538       2.444      5.8406E-03
   6   10.000       9.777       9.452       8.875       7.906       7.328       6.205       4.550       2.446      5.8453E-03
   7   10.000       9.788       9.498       9.044       8.355       7.498       6.252       4.561       2.448      5.8503E-03
   8   10.000       9.793       9.517       9.098       8.462       7.552       6.270       4.565       2.449      5.8529E-03
   9   10.000       9.794       9.522       9.112       8.486       7.566       6.275       4.567       2.449      5.8539E-03
  10   10.000       9.795       9.524       9.115       8.490       7.569       6.276       4.568       2.449      5.8542E-03
1
              HEAD IN LAYER   5 AT END OF TIME STEP  15 IN STRESS PERIOD    3
  ---------------------------------------------------------------------------

            1           2           3           4           5           6           7           8           9          10
 ........................................................................................................................
   1   10.000       9.793       9.520       9.108       8.480       7.560       6.269       4.561       2.445      5.8533E-03
   2   10.000       9.792       9.514       9.094       8.457       7.546       6.264       4.560       2.444      5.8523E-03
   3   10.000       9.787       9.496       9.039       8.348       7.491       6.245       4.555       2.443      5.8496E-03
   4   10.000       9.776       9.449       8.868       7.897       7.319       6.198       4.544       2.441      5.8444E-03
   5   10.000       9.764       9.383       8.526       6.413       6.971       6.131       4.532       2.439      5.8397E-03
   6   10.000       9.776       9.449       8.868       7.897       7.319       6.198       4.544       2.441      5.8444E-03
   7   10.000       9.787       9.496       9.039       8.348       7.491       6.245       4.555       2.443      5.8496E-03
   8   10.000       9.792       9.515       9.094       8.457       7.546       6.264       4.560       2.444      5.8524E-03
   9   10.000       9.793       9.520       9.109       8.481       7.560       6.269       4.561       2.445      5.8534E-03
  10   10.000       9.794       9.522       9.112       8.486       7.564       6.271       4.562       2.445      5.8537E-03

 HEAD WILL BE SAVED ON UNIT   51 AT END OF TIME STEP   15, STRESS PERIOD    3

 DRAWDOWN WILL BE SAVED ON UNIT   52 AT END OF TIME STEP   15, STRESS PERIOD    3
1
  VOLUMETRIC BUDGET FOR ENTIRE MODEL AT END OF TIME STEP   15, STRESS PERIOD   3
  ------------------------------------------------------------------------------

     CUMULATIVE VOLUMES      L**3       RATES FOR THIS TIME STEP      L**3/T
     ------------------                 ------------------------

           IN:                                      IN:
           ---                                      ---
             STORAGE =      342388.2188               STORAGE =        1618.7305
       CONSTANT HEAD =           0.0000         CONSTANT HEAD =           0.0000
               WELLS =           0.0000                 WELLS =           0.0000
     HEAD DEP BOUNDS =        4005.0820       HEAD DEP BOUNDS =         125.4344

            TOTAL IN =      346393.3125              TOTAL IN =        1744.1648

          OUT:                                     OUT:
          ----                                     ----
             STORAGE =           0.0000               STORAGE =           0.0000
       CONSTANT HEAD =           0.0000         CONSTANT HEAD =           0.0000
               WELLS =        7500.0000                 WELLS =         500.0000
     HEAD DEP BOUNDS =      338894.1562       HEAD DEP BOUNDS =        1244.2037

           TOTAL OUT =      346394.1562             TOTAL OUT =        1744.2037

            IN - OUT =          -0.8438              IN - OUT =      -3.8940E-02

 PERCENT DISCREPANCY =          -0.00     PERCENT DISCREPANCY =          -0.00






         TIME SUMMARY AT END OF TIME STEP   15 IN STRESS PERIOD    3
                    SECONDS     MINUTES      HOURS       DAYS        YEARS
                    -----------------------------------------------------------
   TIME STEP LENGTH  86400.      1440.0      24.000      1.0000     2.73785E-03
 STRESS PERIOD TIME 1.29600E+06  21600.      360.00      15.000     4.10678E-02
         TOTAL TIME 1.00224E+07 1.67040E+05  2784.0      116.00     0.31759    
1
 
 SOLVING FOR HEAD 

 OUTPUT CONTROL FOR STRESS PERIOD    3   TIME STEP   16
    SAVE HEAD FOR ALL LAYERS
    SAVE DRAWDOWN FOR ALL LAYERS
    SAVE BUDGET
    PRINT HEAD FOR ALL LAYERS
    PRINT BUDGET
 UBDSV1 SAVING "         STORAGE" ON UNIT  53 AT TIME STEP 16, STRESS PERIOD   3
 UBDSV2 SAVING "   CONSTANT HEAD" ON UNIT  53 AT TIME STEP 16, STRESS PERIOD   3
 UBDSV1 SAVING "FLOW RIGHT FACE " ON UNIT  53 AT TIME STEP 16, STRESS PERIOD   3
 UBDSV1 SAVING "FLOW FRONT FACE " ON UNIT  53 AT TIME STEP 16, STRESS PERIOD   3
 UBDSV1 SAVING "FLOW LOWER FACE " ON UNIT  53 AT TIME STEP 16, STRESS PERIOD   3
1
              HEAD IN LAYER   1 AT END OF TIME STEP  16 IN STRESS PERIOD    3
  ---------------------------------------------------------------------------

            1           2           3           4           5           6           7           8           9          10
 ........................................................................................................................
   1   10.000       9.799       9.531       9.126       8.505       7.590       6.303       4.595       2.474      2.2107E-03
   2   10.000       9.797       9.527       9.114       8.485       7.578       6.298       4.594       2.473      2.2104E-03
   3   10.000       9.793       9.511       9.067       8.387       7.531       6.283       4.590       2.473      2.2094E-03
   4   10.000       9.784       9.470       8.912       7.948       7.374       6.241       4.580       2.471      2.2075E-03
   5   10.000       9.774       9.410       8.573       5.487       7.023       6.179       4.570       2.469      2.2060E-03
   6   10.000       9.784       9.470       8.912       7.948       7.374       6.241       4.580       2.471      2.2075E-03
   7   10.000       9.793       9.511       9.067       8.387       7.531       6.283       4.590       2.473      2.2094E-03
   8   10.000       9.797       9.527       9.114       8.485       7.579       6.299       4.594       2.473      2.2104E-03
   9   10.000       9.799       9.532       9.127       8.506       7.591       6.303       4.596       2.474      2.2107E-03
  10   10.000       9.799       9.533       9.129       8.510       7.593       6.304       4.596       2.474      2.2108E-03
1
              HEAD IN LAYER   2 AT END OF TIME STEP  16 IN STRESS PERIOD    3
  ---------------------------------------------------------------------------

            1           2           3           4           5           6           7           8           9          10
 ........................................................................................................................
   1   10.000       9.795       9.523       9.114       8.489       7.571       6.283       4.578       2.461      5.1556E-03
   2   10.000       9.793       9.518       9.101       8.466       7.558       6.278       4.576       2.461      5.1548E-03
   3   10.000       9.789       9.500       9.048       8.361       7.506       6.261       4.572       2.460      5.1525E-03
   4   10.000       9.778       9.455       8.882       7.905       7.338       6.215       4.561       2.458      5.1481E-03
   5   10.000       9.767       9.391       8.532       5.805       6.979       6.150       4.550       2.456      5.1441E-03
   6   10.000       9.778       9.455       8.882       7.905       7.338       6.215       4.561       2.458      5.1481E-03
   7   10.000       9.789       9.500       9.048       8.361       7.506       6.261       4.572       2.460      5.1525E-03
   8   10.000       9.793       9.518       9.101       8.467       7.558       6.278       4.576       2.461      5.1548E-03
   9   10.000       9.795       9.524       9.115       8.490       7.572       6.284       4.578       2.461      5.1557E-03
  10   10.000       9.796       9.525       9.118       8.495       7.575       6.285       4.579       2.461      5.1559E-03
1
              HEAD IN LAYER   3 AT END OF TIME STEP  16 IN STRESS PERIOD    3
  ---------------------------------------------------------------------------

            1           2           3           4           5           6           7           8           9          10
 ........................................................................................................................
   1   10.000       9.792       9.518       9.104       8.476       7.556       6.266       4.561       2.448      5.7686E-03
   2   10.000       9.790       9.512       9.090       8.452       7.541       6.260       4.559       2.447      5.7676E-03
   3   10.000       9.785       9.492       9.034       8.340       7.485       6.241       4.554       2.446      5.7648E-03
   4   10.000       9.774       9.444       8.859       7.874       7.309       6.193       4.543       2.444      5.7594E-03
   5   10.000       9.762       9.377       8.504       6.078       6.947       6.124       4.530       2.442      5.7545E-03
   6   10.000       9.774       9.444       8.859       7.874       7.309       6.193       4.543       2.444      5.7594E-03
   7   10.000       9.785       9.492       9.034       8.340       7.485       6.241       4.554       2.446      5.7648E-03
   8   10.000       9.790       9.512       9.090       8.452       7.541       6.261       4.559       2.447      5.7677E-03
   9   10.000       9.792       9.518       9.105       8.477       7.556       6.267       4.561       2.448      5.7687E-03
  10   10.000       9.793       9.520       9.109       8.482       7.560       6.268       4.562       2.448      5.7691E-03
1
              HEAD IN LAYER   4 AT END OF TIME STEP  16 IN STRESS PERIOD    3
  ---------------------------------------------------------------------------

            1           2           3           4           5           6           7           8           9          10
 ........................................................................................................................
   1   10.000       9.790       9.514       9.098       8.467       7.545       6.255       4.550       2.439      5.8290E-03
   2   10.000       9.788       9.508       9.083       8.442       7.530       6.249       4.548       2.438      5.8279E-03
   3   10.000       9.783       9.487       9.024       8.326       7.471       6.228       4.542       2.437      5.8248E-03
   4   10.000       9.771       9.436       8.843       7.857       7.289       6.177       4.530       2.435      5.8190E-03
   5   10.000       9.759       9.368       8.488       6.252       6.927       6.107       4.517       2.432      5.8137E-03
   6   10.000       9.771       9.436       8.843       7.857       7.289       6.177       4.530       2.435      5.8190E-03
   7   10.000       9.783       9.487       9.024       8.326       7.471       6.228       4.542       2.437      5.8248E-03
   8   10.000       9.788       9.508       9.083       8.442       7.530       6.249       4.548       2.438      5.8279E-03
   9   10.000       9.790       9.514       9.099       8.469       7.546       6.255       4.550       2.439      5.8291E-03
  10   10.000       9.791       9.516       9.103       8.474       7.550       6.257       4.551       2.439      5.8295E-03
1
              HEAD IN LAYER   5 AT END OF TIME STEP  16 IN STRESS PERIOD    3
  ---------------------------------------------------------------------------

            1           2           3           4           5           6           7           8           9          10
 ........................................................................................................................
   1   10.000       9.789       9.512       9.095       8.463       7.540       6.249       4.544       2.434      5.8285E-03
   2   10.000       9.787       9.505       9.079       8.437       7.524       6.243       4.542       2.434      5.8274E-03
   3   10.000       9.782       9.484       9.019       8.319       7.464       6.222       4.536       2.433      5.8242E-03
   4   10.000       9.770       9.433       8.836       7.848       7.279       6.170       4.524       2.430      5.8182E-03
   5   10.000       9.757       9.363       8.481       6.336       6.918       6.099       4.511       2.428      5.8128E-03
   6   10.000       9.770       9.433       8.836       7.848       7.279       6.170       4.524       2.430      5.8182E-03
   7   10.000       9.782       9.484       9.019       8.320       7.464       6.222       4.536       2.433      5.8242E-03
   8   10.000       9.787       9.506       9.080       8.437       7.525       6.243       4.542       2.434      5.8274E-03
   9   10.000       9.790       9.512       9.096       8.464       7.541       6.249       4.544       2.434      5.8287E-03
  10   10.000       9.790       9.514       9.100       8.470       7.545       6.251       4.545       2.435      5.8290E-03

 HEAD WILL BE SAVED ON UNIT   51 AT END OF TIME STEP   16, STRESS PERIOD    3

 DRAWDOWN WILL BE SAVED ON UNIT   52 AT END OF TIME STEP   16, STRESS PERIOD    3
1
  VOLUMETRIC BUDGET FOR ENTIRE MODEL AT END OF TIME STEP   16, STRESS PERIOD   3
  ------------------------------------------------------------------------------

     CUMULATIVE VOLUMES      L**3       RATES FOR THIS TIME STEP      L**3/T
     ------------------                 ------------------------

           IN:                                      IN:
           ---                                      ---
             STORAGE =      343998.5312               STORAGE =        1610.3008
       CONSTANT HEAD =           0.0000         CONSTANT HEAD =           0.0000
               WELLS =           0.0000                 WELLS =           0.0000
     HEAD DEP BOUNDS =        4133.4380       HEAD DEP BOUNDS =         128.3559

            TOTAL IN =      348131.9688              TOTAL IN =        1738.6566

          OUT:                                     OUT:
          ----                                     ----
             STORAGE =           0.0000               STORAGE =           0.0000
       CONSTANT HEAD =           0.0000         CONSTANT HEAD =           0.0000
               WELLS =        8000.0000                 WELLS =         500.0000
     HEAD DEP BOUNDS =      340132.8750       HEAD DEP BOUNDS =        1238.7161

           TOTAL OUT =      348132.8750             TOTAL OUT =        1738.7161

            IN - OUT =          -0.9062              IN - OUT =      -5.9448E-02

 PERCENT DISCREPANCY =          -0.00     PERCENT DISCREPANCY =          -0.00






         TIME SUMMARY AT END OF TIME STEP   16 IN STRESS PERIOD    3
                    SECONDS     MINUTES      HOURS       DAYS        YEARS
                    -----------------------------------------------------------
   TIME STEP LENGTH  86400.      1440.0      24.000      1.0000     2.73785E-03
 STRESS PERIOD TIME 1.38240E+06  23040.      384.00      16.000     4.38056E-02
         TOTAL TIME 1.01088E+07 1.68480E+05  2808.0      117.00     0.32033    
1
 
 SOLVING FOR HEAD 

 OUTPUT CONTROL FOR STRESS PERIOD    3   TIME STEP   17
    SAVE HEAD FOR ALL LAYERS
    SAVE DRAWDOWN FOR ALL LAYERS
    SAVE BUDGET
    PRINT HEAD FOR ALL LAYERS
    PRINT BUDGET
 UBDSV1 SAVING "         STORAGE" ON UNIT  53 AT TIME STEP 17, STRESS PERIOD   3
 UBDSV2 SAVING "   CONSTANT HEAD" ON UNIT  53 AT TIME STEP 17, STRESS PERIOD   3
 UBDSV1 SAVING "FLOW RIGHT FACE " ON UNIT  53 AT TIME STEP 17, STRESS PERIOD   3
 UBDSV1 SAVING "FLOW FRONT FACE " ON UNIT  53 AT TIME STEP 17, STRESS PERIOD   3
 UBDSV1 SAVING "FLOW LOWER FACE " ON UNIT  53 AT TIME STEP 17, STRESS PERIOD   3
1
              HEAD IN LAYER   1 AT END OF TIME STEP  17 IN STRESS PERIOD    3
  ---------------------------------------------------------------------------

            1           2           3           4           5           6           7           8           9          10
 ........................................................................................................................
   1   10.000       9.795       9.523       9.113       8.488       7.570       6.283       4.578       2.463      2.2005E-03
   2   10.000       9.793       9.518       9.100       8.465       7.557       6.277       4.576       2.463      2.2002E-03
   3   10.000       9.788       9.500       9.047       8.359       7.504       6.259       4.571       2.462      2.1990E-03
   4   10.000       9.778       9.454       8.880       7.898       7.334       6.213       4.561       2.459      2.1968E-03
   5   10.000       9.767       9.390       8.527       5.401       6.969       6.147       4.549       2.457      2.1948E-03
   6   10.000       9.778       9.454       8.880       7.898       7.334       6.213       4.561       2.459      2.1968E-03
   7   10.000       9.788       9.500       9.047       8.359       7.504       6.259       4.571       2.462      2.1990E-03
   8   10.000       9.793       9.518       9.100       8.465       7.557       6.278       4.576       2.463      2.2002E-03
   9   10.000       9.795       9.524       9.114       8.489       7.571       6.283       4.578       2.463      2.2006E-03
  10   10.000       9.795       9.525       9.117       8.494       7.574       6.284       4.579       2.463      2.2007E-03
1
              HEAD IN LAYER   2 AT END OF TIME STEP  17 IN STRESS PERIOD    3
  ---------------------------------------------------------------------------

            1           2           3           4           5           6           7           8           9          10
 ........................................................................................................................
   1   10.000       9.791       9.515       9.101       8.472       7.551       6.263       4.561       2.451      5.1335E-03
   2   10.000       9.789       9.509       9.086       8.447       7.537       6.257       4.559       2.450      5.1325E-03
   3   10.000       9.784       9.489       9.028       8.333       7.479       6.237       4.553       2.449      5.1298E-03
   4   10.000       9.772       9.439       8.850       7.855       7.299       6.188       4.542       2.447      5.1247E-03
   5   10.000       9.760       9.371       8.487       5.722       6.926       6.118       4.529       2.444      5.1201E-03
   6   10.000       9.772       9.439       8.850       7.855       7.299       6.188       4.542       2.447      5.1247E-03
   7   10.000       9.784       9.489       9.028       8.333       7.479       6.238       4.553       2.449      5.1298E-03
   8   10.000       9.789       9.509       9.086       8.447       7.537       6.258       4.559       2.450      5.1326E-03
   9   10.000       9.791       9.516       9.102       8.473       7.552       6.264       4.561       2.451      5.1336E-03
  10   10.000       9.792       9.517       9.106       8.479       7.556       6.265       4.561       2.451      5.1339E-03
1
              HEAD IN LAYER   3 AT END OF TIME STEP  17 IN STRESS PERIOD    3
  ---------------------------------------------------------------------------

            1           2           3           4           5           6           7           8           9          10
 ........................................................................................................................
   1   10.000       9.788       9.509       9.091       8.459       7.536       6.246       4.544       2.437      5.7442E-03
   2   10.000       9.786       9.503       9.075       8.432       7.520       6.240       4.542       2.437      5.7430E-03
   3   10.000       9.780       9.481       9.013       8.312       7.458       6.218       4.536       2.435      5.7397E-03
   4   10.000       9.768       9.428       8.827       7.826       7.269       6.165       4.523       2.433      5.7335E-03
   5   10.000       9.755       9.357       8.460       6.001       6.894       6.092       4.509       2.430      5.7279E-03
   6   10.000       9.768       9.428       8.827       7.826       7.269       6.165       4.523       2.433      5.7335E-03
   7   10.000       9.780       9.481       9.013       8.312       7.458       6.218       4.536       2.435      5.7397E-03
   8   10.000       9.786       9.503       9.075       8.432       7.520       6.240       4.542       2.437      5.7431E-03
   9   10.000       9.788       9.510       9.093       8.460       7.537       6.247       4.544       2.437      5.7444E-03
  10   10.000       9.789       9.512       9.097       8.466       7.541       6.248       4.545       2.438      5.7448E-03
1
              HEAD IN LAYER   4 AT END OF TIME STEP  17 IN STRESS PERIOD    3
  ---------------------------------------------------------------------------

            1           2           3           4           5           6           7           8           9          10
 ........................................................................................................................
   1   10.000       9.786       9.505       9.085       8.450       7.525       6.235       4.533       2.429      5.8045E-03
   2   10.000       9.784       9.498       9.068       8.422       7.508       6.228       4.531       2.428      5.8032E-03
   3   10.000       9.778       9.475       9.004       8.298       7.444       6.205       4.524       2.426      5.7996E-03
   4   10.000       9.765       9.420       8.811       7.808       7.250       6.149       4.511       2.424      5.7929E-03
   5   10.000       9.751       9.347       8.444       6.177       6.876       6.075       4.497       2.421      5.7870E-03
   6   10.000       9.765       9.420       8.811       7.808       7.250       6.149       4.511       2.424      5.7929E-03
   7   10.000       9.778       9.475       9.004       8.298       7.444       6.205       4.524       2.426      5.7996E-03
   8   10.000       9.784       9.499       9.068       8.422       7.509       6.228       4.531       2.428      5.8032E-03
   9   10.000       9.787       9.506       9.086       8.452       7.527       6.235       4.533       2.429      5.8047E-03
  10   10.000       9.787       9.508       9.091       8.458       7.531       6.237       4.534       2.429      5.8051E-03
1
              HEAD IN LAYER   5 AT END OF TIME STEP  17 IN STRESS PERIOD    3
  ---------------------------------------------------------------------------

            1           2           3           4           5           6           7           8           9          10
 ........................................................................................................................
   1   10.000       9.785       9.503       9.082       8.446       7.520       6.229       4.527       2.424      5.8041E-03
   2   10.000       9.783       9.496       9.064       8.417       7.503       6.222       4.525       2.424      5.8027E-03
   3   10.000       9.777       9.473       8.999       8.291       7.437       6.198       4.518       2.422      5.7990E-03
   4   10.000       9.763       9.416       8.804       7.800       7.240       6.142       4.504       2.419      5.7921E-03
   5   10.000       9.749       9.343       8.437       6.262       6.867       6.066       4.490       2.417      5.7861E-03
   6   10.000       9.763       9.416       8.804       7.800       7.240       6.142       4.504       2.419      5.7921E-03
   7   10.000       9.777       9.473       8.999       8.291       7.437       6.198       4.518       2.422      5.7990E-03
   8   10.000       9.783       9.496       9.065       8.417       7.503       6.222       4.525       2.424      5.8028E-03
   9   10.000       9.786       9.504       9.083       8.447       7.521       6.230       4.527       2.424      5.8043E-03
  10   10.000       9.786       9.506       9.088       8.454       7.526       6.231       4.528       2.424      5.8047E-03

 HEAD WILL BE SAVED ON UNIT   51 AT END OF TIME STEP   17, STRESS PERIOD    3

 DRAWDOWN WILL BE SAVED ON UNIT   52 AT END OF TIME STEP   17, STRESS PERIOD    3
1
  VOLUMETRIC BUDGET FOR ENTIRE MODEL AT END OF TIME STEP   17, STRESS PERIOD   3
  ------------------------------------------------------------------------------

     CUMULATIVE VOLUMES      L**3       RATES FOR THIS TIME STEP      L**3/T
     ------------------                 ------------------------

           IN:                                      IN:
           ---                                      ---
             STORAGE =      345600.4375               STORAGE =        1601.8938
       CONSTANT HEAD =           0.0000         CONSTANT HEAD =           0.0000
               WELLS =           0.0000                 WELLS =           0.0000
     HEAD DEP BOUNDS =        4264.7744       HEAD DEP BOUNDS =         131.3366

            TOTAL IN =      349865.2188              TOTAL IN =        1733.2305

          OUT:                                     OUT:
          ----                                     ----
             STORAGE =           0.0000               STORAGE =           0.0000
       CONSTANT HEAD =           0.0000         CONSTANT HEAD =           0.0000
               WELLS =        8500.0000                 WELLS =         500.0000
     HEAD DEP BOUNDS =      341366.1562       HEAD DEP BOUNDS =        1233.2845

           TOTAL OUT =      349866.1562             TOTAL OUT =        1733.2845

            IN - OUT =          -0.9375              IN - OUT =      -5.4077E-02

 PERCENT DISCREPANCY =          -0.00     PERCENT DISCREPANCY =          -0.00






         TIME SUMMARY AT END OF TIME STEP   17 IN STRESS PERIOD    3
                    SECONDS     MINUTES      HOURS       DAYS        YEARS
                    -----------------------------------------------------------
   TIME STEP LENGTH  86400.      1440.0      24.000      1.0000     2.73785E-03
 STRESS PERIOD TIME 1.46880E+06  24480.      408.00      17.000     4.65435E-02
         TOTAL TIME 1.01952E+07 1.69920E+05  2832.0      118.00     0.32307    
1
 
 SOLVING FOR HEAD 

 OUTPUT CONTROL FOR STRESS PERIOD    3   TIME STEP   18
    SAVE HEAD FOR ALL LAYERS
    SAVE DRAWDOWN FOR ALL LAYERS
    SAVE BUDGET
    PRINT HEAD FOR ALL LAYERS
    PRINT BUDGET
 UBDSV1 SAVING "         STORAGE" ON UNIT  53 AT TIME STEP 18, STRESS PERIOD   3
 UBDSV2 SAVING "   CONSTANT HEAD" ON UNIT  53 AT TIME STEP 18, STRESS PERIOD   3
 UBDSV1 SAVING "FLOW RIGHT FACE " ON UNIT  53 AT TIME STEP 18, STRESS PERIOD   3
 UBDSV1 SAVING "FLOW FRONT FACE " ON UNIT  53 AT TIME STEP 18, STRESS PERIOD   3
 UBDSV1 SAVING "FLOW LOWER FACE " ON UNIT  53 AT TIME STEP 18, STRESS PERIOD   3
1
              HEAD IN LAYER   1 AT END OF TIME STEP  18 IN STRESS PERIOD    3
  ---------------------------------------------------------------------------

            1           2           3           4           5           6           7           8           9          10
 ........................................................................................................................
   1   10.000       9.791       9.515       9.100       8.471       7.550       6.263       4.561       2.453      2.1903E-03
   2   10.000       9.789       9.509       9.085       8.446       7.535       6.257       4.559       2.452      2.1899E-03
   3   10.000       9.783       9.488       9.027       8.331       7.477       6.236       4.553       2.451      2.1885E-03
   4   10.000       9.772       9.438       8.848       7.848       7.295       6.185       4.541       2.448      2.1861E-03
   5   10.000       9.760       9.370       8.482       5.320       6.916       6.115       4.528       2.446      2.1837E-03
   6   10.000       9.772       9.438       8.848       7.848       7.295       6.185       4.541       2.448      2.1861E-03
   7   10.000       9.783       9.488       9.027       8.331       7.477       6.236       4.553       2.451      2.1885E-03
   8   10.000       9.789       9.509       9.085       8.446       7.536       6.257       4.559       2.452      2.1899E-03
   9   10.000       9.791       9.515       9.101       8.472       7.552       6.263       4.561       2.453      2.1904E-03
  10   10.000       9.792       9.517       9.105       8.478       7.555       6.265       4.562       2.453      2.1906E-03
1
              HEAD IN LAYER   2 AT END OF TIME STEP  18 IN STRESS PERIOD    3
  ---------------------------------------------------------------------------

            1           2           3           4           5           6           7           8           9          10
 ........................................................................................................................
   1   10.000       9.787       9.507       9.088       8.455       7.532       6.243       4.544       2.440      5.1116E-03
   2   10.000       9.785       9.500       9.071       8.427       7.515       6.237       4.541       2.440      5.1105E-03
   3   10.000       9.779       9.478       9.008       8.305       7.452       6.214       4.535       2.438      5.1073E-03
   4   10.000       9.766       9.423       8.818       7.807       7.260       6.160       4.522       2.436      5.1015E-03
   5   10.000       9.753       9.351       8.443       5.645       6.874       6.086       4.508       2.433      5.0963E-03
   6   10.000       9.766       9.423       8.818       7.807       7.260       6.160       4.522       2.436      5.1015E-03
   7   10.000       9.779       9.478       9.008       8.305       7.452       6.214       4.535       2.438      5.1073E-03
   8   10.000       9.785       9.500       9.071       8.427       7.515       6.237       4.542       2.440      5.1105E-03
   9   10.000       9.787       9.508       9.089       8.456       7.533       6.244       4.544       2.440      5.1118E-03
  10   10.000       9.788       9.510       9.094       8.462       7.537       6.246       4.544       2.441      5.1122E-03
1
              HEAD IN LAYER   3 AT END OF TIME STEP  18 IN STRESS PERIOD    3
  ---------------------------------------------------------------------------

            1           2           3           4           5           6           7           8           9          10
 ........................................................................................................................
   1   10.000       9.784       9.501       9.079       8.441       7.516       6.226       4.527       2.427      5.7201E-03
   2   10.000       9.782       9.494       9.060       8.412       7.498       6.219       4.525       2.427      5.7187E-03
   3   10.000       9.775       9.469       8.993       8.284       7.430       6.195       4.518       2.425      5.7148E-03
   4   10.000       9.761       9.412       8.795       7.778       7.231       6.137       4.503       2.422      5.7077E-03
   5    9.999       9.747       9.337       8.417       5.927       6.844       6.060       4.489       2.419      5.7015E-03
   6   10.000       9.761       9.412       8.795       7.778       7.231       6.137       4.503       2.422      5.7077E-03
   7   10.000       9.775       9.469       8.993       8.284       7.431       6.195       4.518       2.425      5.7148E-03
   8   10.000       9.782       9.494       9.061       8.412       7.498       6.219       4.525       2.427      5.7187E-03
   9   10.000       9.784       9.502       9.080       8.443       7.517       6.227       4.527       2.427      5.7203E-03
  10   10.000       9.785       9.504       9.085       8.450       7.522       6.229       4.528       2.427      5.7208E-03
1
              HEAD IN LAYER   4 AT END OF TIME STEP  18 IN STRESS PERIOD    3
  ---------------------------------------------------------------------------

            1           2           3           4           5           6           7           8           9          10
 ........................................................................................................................
   1   10.000       9.782       9.497       9.072       8.433       7.506       6.215       4.516       2.418      5.7802E-03
   2   10.000       9.780       9.489       9.053       8.402       7.487       6.207       4.513       2.418      5.7787E-03
   3   10.000       9.773       9.464       8.983       8.270       7.416       6.182       4.506       2.416      5.7745E-03
   4   10.000       9.758       9.404       8.780       7.761       7.211       6.121       4.491       2.413      5.7669E-03
   5    9.999       9.744       9.327       8.401       6.106       6.825       6.043       4.476       2.410      5.7603E-03
   6   10.000       9.758       9.404       8.780       7.761       7.211       6.121       4.491       2.413      5.7669E-03
   7   10.000       9.773       9.464       8.983       8.270       7.416       6.182       4.506       2.416      5.7745E-03
   8   10.000       9.780       9.489       9.053       8.402       7.487       6.207       4.513       2.418      5.7788E-03
   9   10.000       9.783       9.498       9.074       8.435       7.507       6.215       4.516       2.418      5.7805E-03
  10   10.000       9.783       9.500       9.079       8.442       7.512       6.218       4.517       2.419      5.7810E-03
1
              HEAD IN LAYER   5 AT END OF TIME STEP  18 IN STRESS PERIOD    3
  ---------------------------------------------------------------------------

            1           2           3           4           5           6           7           8           9          10
 ........................................................................................................................
   1   10.000       9.781       9.495       9.069       8.428       7.500       6.209       4.510       2.414      5.7799E-03
   2   10.000       9.779       9.487       9.049       8.397       7.481       6.201       4.508       2.413      5.7783E-03
   3   10.000       9.771       9.461       8.978       8.263       7.409       6.175       4.500       2.412      5.7740E-03
   4   10.000       9.757       9.400       8.772       7.754       7.201       6.114       4.485       2.408      5.7661E-03
   5    9.999       9.742       9.322       8.395       6.192       6.817       6.034       4.469       2.405      5.7594E-03
   6   10.000       9.757       9.400       8.772       7.754       7.201       6.114       4.485       2.408      5.7661E-03
   7   10.000       9.771       9.461       8.978       8.263       7.409       6.175       4.500       2.412      5.7740E-03
   8   10.000       9.779       9.487       9.050       8.397       7.481       6.201       4.508       2.413      5.7784E-03
   9   10.000       9.782       9.496       9.071       8.431       7.502       6.210       4.511       2.414      5.7802E-03
  10   10.000       9.782       9.498       9.076       8.438       7.507       6.212       4.512       2.414      5.7807E-03

 HEAD WILL BE SAVED ON UNIT   51 AT END OF TIME STEP   18, STRESS PERIOD    3

 DRAWDOWN WILL BE SAVED ON UNIT   52 AT END OF TIME STEP   18, STRESS PERIOD    3
1
  VOLUMETRIC BUDGET FOR ENTIRE MODEL AT END OF TIME STEP   18, STRESS PERIOD   3
  ------------------------------------------------------------------------------

     CUMULATIVE VOLUMES      L**3       RATES FOR THIS TIME STEP      L**3/T
     ------------------                 ------------------------

           IN:                                      IN:
           ---                                      ---
             STORAGE =      347193.9062               STORAGE =        1593.4666
       CONSTANT HEAD =           0.0000         CONSTANT HEAD =           0.0000
               WELLS =           0.0000                 WELLS =           0.0000
     HEAD DEP BOUNDS =        4399.1611       HEAD DEP BOUNDS =         134.3868

            TOTAL IN =      351593.0625              TOTAL IN =        1727.8534

          OUT:                                     OUT:
          ----                                     ----
             STORAGE =           0.0000               STORAGE =           0.0000
       CONSTANT HEAD =           0.0000         CONSTANT HEAD =           0.0000
               WELLS =        9000.0000                 WELLS =         500.0000
     HEAD DEP BOUNDS =      342594.0625       HEAD DEP BOUNDS =        1227.8931

           TOTAL OUT =      351594.0625             TOTAL OUT =        1727.8931

            IN - OUT =          -1.0000              IN - OUT =      -3.9673E-02

 PERCENT DISCREPANCY =          -0.00     PERCENT DISCREPANCY =          -0.00






         TIME SUMMARY AT END OF TIME STEP   18 IN STRESS PERIOD    3
                    SECONDS     MINUTES      HOURS       DAYS        YEARS
                    -----------------------------------------------------------
   TIME STEP LENGTH  86400.      1440.0      24.000      1.0000     2.73785E-03
 STRESS PERIOD TIME 1.55520E+06  25920.      432.00      18.000     4.92813E-02
         TOTAL TIME 1.02816E+07 1.71360E+05  2856.0      119.00     0.32580    
1
 
 SOLVING FOR HEAD 

 OUTPUT CONTROL FOR STRESS PERIOD    3   TIME STEP   19
    SAVE HEAD FOR ALL LAYERS
    SAVE DRAWDOWN FOR ALL LAYERS
    SAVE BUDGET
    PRINT HEAD FOR ALL LAYERS
    PRINT BUDGET
 UBDSV1 SAVING "         STORAGE" ON UNIT  53 AT TIME STEP 19, STRESS PERIOD   3
 UBDSV2 SAVING "   CONSTANT HEAD" ON UNIT  53 AT TIME STEP 19, STRESS PERIOD   3
 UBDSV1 SAVING "FLOW RIGHT FACE " ON UNIT  53 AT TIME STEP 19, STRESS PERIOD   3
 UBDSV1 SAVING "FLOW FRONT FACE " ON UNIT  53 AT TIME STEP 19, STRESS PERIOD   3
 UBDSV1 SAVING "FLOW LOWER FACE " ON UNIT  53 AT TIME STEP 19, STRESS PERIOD   3
1
              HEAD IN LAYER   1 AT END OF TIME STEP  19 IN STRESS PERIOD    3
  ---------------------------------------------------------------------------

            1           2           3           4           5           6           7           8           9          10
 ........................................................................................................................
   1   10.000       9.787       9.507       9.087       8.454       7.531       6.243       4.544       2.442      2.1803E-03
   2   10.000       9.785       9.500       9.070       8.426       7.514       6.236       4.541       2.442      2.1797E-03
   3   10.000       9.778       9.477       9.007       8.303       7.450       6.213       4.535       2.440      2.1782E-03
   4   10.000       9.765       9.422       8.816       7.800       7.256       6.157       4.521       2.437      2.1752E-03
   5   10.000       9.752       9.350       8.438       5.243       6.865       6.082       4.507       2.435      2.1728E-03
   6   10.000       9.765       9.422       8.816       7.800       7.256       6.157       4.521       2.437      2.1752E-03
   7   10.000       9.778       9.477       9.007       8.303       7.450       6.213       4.535       2.440      2.1782E-03
   8   10.000       9.785       9.500       9.071       8.426       7.514       6.236       4.542       2.442      2.1797E-03
   9   10.000       9.787       9.507       9.089       8.455       7.532       6.243       4.544       2.442      2.1804E-03
  10   10.000       9.788       9.509       9.093       8.462       7.536       6.245       4.545       2.443      2.1806E-03
1
              HEAD IN LAYER   2 AT END OF TIME STEP  19 IN STRESS PERIOD    3
  ---------------------------------------------------------------------------

            1           2           3           4           5           6           7           8           9          10
 ........................................................................................................................
   1   10.000       9.783       9.499       9.075       8.437       7.512       6.223       4.527       2.430      5.0900E-03
   2   10.000       9.781       9.491       9.056       8.407       7.493       6.216       4.524       2.430      5.0887E-03
   3   10.000       9.774       9.466       8.987       8.276       7.424       6.191       4.517       2.428      5.0850E-03
   4   10.000       9.759       9.407       8.787       7.760       7.221       6.132       4.502       2.425      5.0783E-03
   5    9.999       9.745       9.331       8.400       5.571       6.824       6.054       4.487       2.422      5.0726E-03
   6   10.000       9.759       9.407       8.787       7.760       7.221       6.132       4.502       2.425      5.0783E-03
   7   10.000       9.774       9.466       8.987       8.276       7.424       6.191       4.517       2.428      5.0850E-03
   8   10.000       9.781       9.491       9.057       8.407       7.494       6.216       4.524       2.430      5.0887E-03
   9   10.000       9.783       9.499       9.077       8.439       7.513       6.224       4.527       2.430      5.0902E-03
  10   10.000       9.784       9.502       9.081       8.446       7.518       6.226       4.528       2.430      5.0907E-03
1
              HEAD IN LAYER   3 AT END OF TIME STEP  19 IN STRESS PERIOD    3
  ---------------------------------------------------------------------------

            1           2           3           4           5           6           7           8           9          10
 ........................................................................................................................
   1   10.000       9.780       9.493       9.065       8.424       7.496       6.206       4.510       2.417      5.6963E-03
   2   10.000       9.777       9.484       9.045       8.392       7.476       6.198       4.507       2.416      5.6946E-03
   3   10.000       9.770       9.457       8.972       8.255       7.403       6.171       4.500       2.414      5.6901E-03
   4   10.000       9.755       9.395       8.763       7.732       7.192       6.109       4.484       2.411      5.6820E-03
   5    9.999       9.740       9.317       8.374       5.857       6.794       6.028       4.468       2.408      5.6752E-03
   6   10.000       9.755       9.395       8.763       7.732       7.192       6.109       4.484       2.411      5.6820E-03
   7   10.000       9.770       9.457       8.972       8.255       7.403       6.171       4.500       2.414      5.6901E-03
   8   10.000       9.778       9.484       9.046       8.392       7.477       6.198       4.508       2.416      5.6946E-03
   9   10.000       9.780       9.494       9.067       8.426       7.498       6.207       4.510       2.417      5.6965E-03
  10   10.000       9.781       9.496       9.072       8.434       7.503       6.210       4.511       2.417      5.6971E-03
1
              HEAD IN LAYER   4 AT END OF TIME STEP  19 IN STRESS PERIOD    3
  ---------------------------------------------------------------------------

            1           2           3           4           5           6           7           8           9          10
 ........................................................................................................................
   1   10.000       9.778       9.489       9.059       8.416       7.486       6.195       4.499       2.408      5.7563E-03
   2   10.000       9.775       9.480       9.038       8.382       7.465       6.186       4.496       2.408      5.7545E-03
   3   10.000       9.767       9.452       8.962       8.241       7.389       6.158       4.488       2.406      5.7496E-03
   4   10.000       9.751       9.387       8.748       7.715       7.172       6.093       4.471       2.402      5.7410E-03
   5    9.999       9.736       9.307       8.360       6.038       6.776       6.011       4.455       2.399      5.7338E-03
   6   10.000       9.751       9.387       8.748       7.715       7.172       6.093       4.471       2.402      5.7410E-03
   7   10.000       9.767       9.452       8.962       8.241       7.389       6.158       4.488       2.406      5.7496E-03
   8   10.000       9.775       9.480       9.038       8.382       7.465       6.186       4.496       2.408      5.7545E-03
   9   10.000       9.779       9.490       9.061       8.418       7.488       6.196       4.500       2.408      5.7565E-03
  10   10.000       9.780       9.492       9.066       8.426       7.493       6.198       4.500       2.409      5.7572E-03
1
              HEAD IN LAYER   5 AT END OF TIME STEP  19 IN STRESS PERIOD    3
  ---------------------------------------------------------------------------

            1           2           3           4           5           6           7           8           9          10
 ........................................................................................................................
   1   10.000       9.777       9.487       9.056       8.411       7.481       6.189       4.494       2.404      5.7560E-03
   2   10.000       9.774       9.477       9.034       8.377       7.459       6.180       4.491       2.403      5.7541E-03
   3   10.000       9.766       9.449       8.957       8.234       7.382       6.152       4.482       2.401      5.7491E-03
   4   10.000       9.750       9.383       8.740       7.708       7.163       6.086       4.465       2.397      5.7403E-03
   5    9.999       9.734       9.302       8.353       6.126       6.768       6.002       4.449       2.394      5.7329E-03
   6   10.000       9.750       9.383       8.741       7.708       7.163       6.086       4.465       2.397      5.7403E-03
   7   10.000       9.766       9.449       8.957       8.234       7.382       6.152       4.482       2.401      5.7491E-03
   8   10.000       9.774       9.478       9.035       8.377       7.460       6.181       4.491       2.403      5.7542E-03
   9   10.000       9.778       9.488       9.058       8.414       7.482       6.190       4.494       2.404      5.7563E-03
  10   10.000       9.779       9.490       9.063       8.422       7.488       6.193       4.495       2.404      5.7569E-03

 HEAD WILL BE SAVED ON UNIT   51 AT END OF TIME STEP   19, STRESS PERIOD    3

 DRAWDOWN WILL BE SAVED ON UNIT   52 AT END OF TIME STEP   19, STRESS PERIOD    3
1
  VOLUMETRIC BUDGET FOR ENTIRE MODEL AT END OF TIME STEP   19, STRESS PERIOD   3
  ------------------------------------------------------------------------------

     CUMULATIVE VOLUMES      L**3       RATES FOR THIS TIME STEP      L**3/T
     ------------------                 ------------------------

           IN:                                      IN:
           ---                                      ---
             STORAGE =      348778.9375               STORAGE =        1585.0297
       CONSTANT HEAD =           0.0000         CONSTANT HEAD =           0.0000
               WELLS =           0.0000                 WELLS =           0.0000
     HEAD DEP BOUNDS =        4536.6392       HEAD DEP BOUNDS =         137.4781

            TOTAL IN =      353315.5625              TOTAL IN =        1722.5078

          OUT:                                     OUT:
          ----                                     ----
             STORAGE =           0.0000               STORAGE =           0.0000
       CONSTANT HEAD =           0.0000         CONSTANT HEAD =           0.0000
               WELLS =        9500.0000                 WELLS =         500.0000
     HEAD DEP BOUNDS =      343816.5938       HEAD DEP BOUNDS =        1222.5460

           TOTAL OUT =      353316.5938             TOTAL OUT =        1722.5460

            IN - OUT =          -1.0312              IN - OUT =      -3.8208E-02

 PERCENT DISCREPANCY =          -0.00     PERCENT DISCREPANCY =          -0.00






         TIME SUMMARY AT END OF TIME STEP   19 IN STRESS PERIOD    3
                    SECONDS     MINUTES      HOURS       DAYS        YEARS
                    -----------------------------------------------------------
   TIME STEP LENGTH  86400.      1440.0      24.000      1.0000     2.73785E-03
 STRESS PERIOD TIME 1.64160E+06  27360.      456.00      19.000     5.20192E-02
         TOTAL TIME 1.03680E+07 1.72800E+05  2880.0      120.00     0.32854    
1
 
 SOLVING FOR HEAD 

 OUTPUT CONTROL FOR STRESS PERIOD    3   TIME STEP   20
    SAVE HEAD FOR ALL LAYERS
    SAVE DRAWDOWN FOR ALL LAYERS
    SAVE BUDGET
    PRINT HEAD FOR ALL LAYERS
    PRINT BUDGET
 UBDSV1 SAVING "         STORAGE" ON UNIT  53 AT TIME STEP 20, STRESS PERIOD   3
 UBDSV2 SAVING "   CONSTANT HEAD" ON UNIT  53 AT TIME STEP 20, STRESS PERIOD   3
 UBDSV1 SAVING "FLOW RIGHT FACE " ON UNIT  53 AT TIME STEP 20, STRESS PERIOD   3
 UBDSV1 SAVING "FLOW FRONT FACE " ON UNIT  53 AT TIME STEP 20, STRESS PERIOD   3
 UBDSV1 SAVING "FLOW LOWER FACE " ON UNIT  53 AT TIME STEP 20, STRESS PERIOD   3
1
              HEAD IN LAYER   1 AT END OF TIME STEP  20 IN STRESS PERIOD    3
  ---------------------------------------------------------------------------

            1           2           3           4           5           6           7           8           9          10
 ........................................................................................................................
   1   10.000       9.783       9.498       9.074       8.436       7.511       6.223       4.527       2.432      2.1703E-03
   2   10.000       9.780       9.490       9.055       8.406       7.492       6.215       4.524       2.431      2.1697E-03
   3   10.000       9.773       9.465       8.986       8.274       7.422       6.189       4.517       2.430      2.1678E-03
   4   10.000       9.759       9.406       8.785       7.753       7.217       6.129       4.502       2.426      2.1647E-03
   5    9.999       9.745       9.330       8.396       5.171       6.814       6.050       4.486       2.423      2.1619E-03
   6   10.000       9.759       9.406       8.785       7.753       7.217       6.129       4.502       2.426      2.1647E-03
   7   10.000       9.773       9.465       8.986       8.275       7.422       6.189       4.517       2.430      2.1678E-03
   8   10.000       9.780       9.491       9.056       8.406       7.492       6.215       4.524       2.431      2.1697E-03
   9   10.000       9.783       9.499       9.076       8.438       7.513       6.223       4.527       2.432      2.1704E-03
  10   10.000       9.784       9.501       9.081       8.446       7.517       6.226       4.528       2.432      2.1706E-03
1
              HEAD IN LAYER   2 AT END OF TIME STEP  20 IN STRESS PERIOD    3
  ---------------------------------------------------------------------------

            1           2           3           4           5           6           7           8           9          10
 ........................................................................................................................
   1   10.000       9.779       9.490       9.062       8.420       7.492       6.204       4.510       2.420      5.0686E-03
   2   10.000       9.776       9.482       9.041       8.387       7.472       6.195       4.507       2.419      5.0671E-03
   3   10.000       9.768       9.454       8.967       8.248       7.397       6.167       4.499       2.417      5.0628E-03
   4   10.000       9.753       9.391       8.755       7.714       7.183       6.104       4.483       2.414      5.0553E-03
   5    9.999       9.737       9.311       8.358       5.501       6.774       6.022       4.466       2.411      5.0490E-03
   6   10.000       9.753       9.391       8.755       7.714       7.183       6.104       4.483       2.414      5.0553E-03
   7   10.000       9.768       9.454       8.967       8.248       7.397       6.167       4.499       2.417      5.0628E-03
   8   10.000       9.776       9.482       9.042       8.388       7.472       6.195       4.507       2.419      5.0671E-03
   9   10.000       9.779       9.491       9.064       8.422       7.494       6.204       4.510       2.420      5.0689E-03
  10   10.000       9.780       9.494       9.069       8.430       7.499       6.207       4.511       2.420      5.0694E-03
1
              HEAD IN LAYER   3 AT END OF TIME STEP  20 IN STRESS PERIOD    3
  ---------------------------------------------------------------------------

            1           2           3           4           5           6           7           8           9          10
 ........................................................................................................................
   1   10.000       9.776       9.484       9.052       8.407       7.477       6.187       4.494       2.407      5.6727E-03
   2   10.000       9.773       9.475       9.030       8.372       7.455       6.177       4.490       2.406      5.6707E-03
   3   10.000       9.764       9.445       8.951       8.227       7.376       6.148       4.482       2.404      5.6655E-03
   4    9.999       9.748       9.379       8.732       7.686       7.153       6.080       4.464       2.400      5.6565E-03
   5    9.999       9.732       9.297       8.333       5.790       6.745       5.996       4.447       2.397      5.6490E-03
   6    9.999       9.748       9.379       8.732       7.687       7.153       6.081       4.464       2.400      5.6565E-03
   7   10.000       9.764       9.445       8.952       8.227       7.376       6.148       4.482       2.404      5.6655E-03
   8   10.000       9.773       9.475       9.031       8.372       7.455       6.178       4.490       2.406      5.6708E-03
   9   10.000       9.776       9.485       9.054       8.409       7.479       6.188       4.494       2.407      5.6729E-03
  10   10.000       9.777       9.488       9.060       8.418       7.484       6.190       4.495       2.407      5.6736E-03
1
              HEAD IN LAYER   4 AT END OF TIME STEP  20 IN STRESS PERIOD    3
  ---------------------------------------------------------------------------

            1           2           3           4           5           6           7           8           9          10
 ........................................................................................................................
   1   10.000       9.774       9.480       9.046       8.398       7.466       6.175       4.483       2.398      5.7326E-03
   2   10.000       9.771       9.470       9.023       8.362       7.443       6.166       4.479       2.398      5.7305E-03
   3   10.000       9.762       9.439       8.941       8.213       7.361       6.135       4.470       2.395      5.7249E-03
   4    9.999       9.745       9.371       8.717       7.671       7.134       6.065       4.452       2.391      5.7152E-03
   5    9.999       9.728       9.287       8.319       5.974       6.728       5.979       4.434       2.388      5.7074E-03
   6    9.999       9.745       9.371       8.717       7.671       7.134       6.065       4.452       2.391      5.7153E-03
   7   10.000       9.762       9.439       8.941       8.213       7.362       6.135       4.470       2.395      5.7249E-03
   8   10.000       9.771       9.470       9.023       8.362       7.444       6.166       4.479       2.398      5.7305E-03
   9   10.000       9.775       9.481       9.048       8.401       7.468       6.176       4.483       2.399      5.7329E-03
  10   10.000       9.776       9.484       9.054       8.410       7.474       6.179       4.484       2.399      5.7336E-03
1
              HEAD IN LAYER   5 AT END OF TIME STEP  20 IN STRESS PERIOD    3
  ---------------------------------------------------------------------------

            1           2           3           4           5           6           7           8           9          10
 ........................................................................................................................
   1   10.000       9.773       9.478       9.043       8.394       7.461       6.170       4.477       2.394      5.7324E-03
   2   10.000       9.770       9.468       9.019       8.357       7.438       6.160       4.474       2.393      5.7302E-03
   3   10.000       9.761       9.436       8.936       8.206       7.354       6.128       4.464       2.391      5.7245E-03
   4    9.999       9.743       9.367       8.709       7.663       7.125       6.057       4.446       2.387      5.7146E-03
   5    9.999       9.726       9.282       8.313       6.063       6.720       5.971       4.428       2.383      5.7065E-03
   6    9.999       9.743       9.367       8.709       7.663       7.125       6.057       4.446       2.387      5.7146E-03
   7   10.000       9.761       9.436       8.936       8.206       7.354       6.128       4.464       2.391      5.7245E-03
   8   10.000       9.770       9.468       9.020       8.357       7.438       6.160       4.474       2.393      5.7303E-03
   9   10.000       9.774       9.479       9.045       8.397       7.463       6.171       4.478       2.394      5.7327E-03
  10   10.000       9.775       9.482       9.051       8.406       7.469       6.174       4.479       2.395      5.7335E-03

 HEAD WILL BE SAVED ON UNIT   51 AT END OF TIME STEP   20, STRESS PERIOD    3

 DRAWDOWN WILL BE SAVED ON UNIT   52 AT END OF TIME STEP   20, STRESS PERIOD    3
1
  VOLUMETRIC BUDGET FOR ENTIRE MODEL AT END OF TIME STEP   20, STRESS PERIOD   3
  ------------------------------------------------------------------------------

     CUMULATIVE VOLUMES      L**3       RATES FOR THIS TIME STEP      L**3/T
     ------------------                 ------------------------

           IN:                                      IN:
           ---                                      ---
             STORAGE =      350355.5312               STORAGE =        1576.5807
       CONSTANT HEAD =           0.0000         CONSTANT HEAD =           0.0000
               WELLS =           0.0000                 WELLS =           0.0000
     HEAD DEP BOUNDS =        4677.2617       HEAD DEP BOUNDS =         140.6224

            TOTAL IN =      355032.7812              TOTAL IN =        1717.2031

          OUT:                                     OUT:
          ----                                     ----
             STORAGE =           0.0000               STORAGE =           0.0000
       CONSTANT HEAD =           0.0000         CONSTANT HEAD =           0.0000
               WELLS =       10000.0000                 WELLS =         500.0000
     HEAD DEP BOUNDS =      345033.8438       HEAD DEP BOUNDS =        1217.2458

           TOTAL OUT =      355033.8438             TOTAL OUT =        1717.2458

            IN - OUT =          -1.0625              IN - OUT =      -4.2725E-02

 PERCENT DISCREPANCY =          -0.00     PERCENT DISCREPANCY =          -0.00






         TIME SUMMARY AT END OF TIME STEP   20 IN STRESS PERIOD    3
                    SECONDS     MINUTES      HOURS       DAYS        YEARS
                    -----------------------------------------------------------
   TIME STEP LENGTH  86400.      1440.0      24.000      1.0000     2.73785E-03
 STRESS PERIOD TIME 1.72800E+06  28800.      480.00      20.000     5.47570E-02
         TOTAL TIME 1.04544E+07 1.74240E+05  2904.0      121.00     0.33128    
1
 
 SOLVING FOR HEAD 

 OUTPUT CONTROL FOR STRESS PERIOD    3   TIME STEP   21
    SAVE HEAD FOR ALL LAYERS
    SAVE DRAWDOWN FOR ALL LAYERS
    SAVE BUDGET
    PRINT HEAD FOR ALL LAYERS
    PRINT BUDGET
 UBDSV1 SAVING "         STORAGE" ON UNIT  53 AT TIME STEP 21, STRESS PERIOD   3
 UBDSV2 SAVING "   CONSTANT HEAD" ON UNIT  53 AT TIME STEP 21, STRESS PERIOD   3
 UBDSV1 SAVING "FLOW RIGHT FACE " ON UNIT  53 AT TIME STEP 21, STRESS PERIOD   3
 UBDSV1 SAVING "FLOW FRONT FACE " ON UNIT  53 AT TIME STEP 21, STRESS PERIOD   3
 UBDSV1 SAVING "FLOW LOWER FACE " ON UNIT  53 AT TIME STEP 21, STRESS PERIOD   3
1
              HEAD IN LAYER   1 AT END OF TIME STEP  21 IN STRESS PERIOD    3
  ---------------------------------------------------------------------------

            1           2           3           4           5           6           7           8           9          10
 ........................................................................................................................
   1   10.000       9.779       9.490       9.061       8.419       7.491       6.203       4.510       2.422      2.1607E-03
   2   10.000       9.776       9.481       9.040       8.386       7.470       6.194       4.507       2.421      2.1598E-03
   3   10.000       9.768       9.453       8.965       8.246       7.395       6.166       4.499       2.419      2.1577E-03
   4   10.000       9.752       9.390       8.753       7.708       7.179       6.101       4.482       2.415      2.1541E-03
   5    9.999       9.737       9.310       8.354       5.102       6.765       6.018       4.465       2.412      2.1510E-03
   6   10.000       9.752       9.390       8.753       7.708       7.179       6.101       4.482       2.415      2.1541E-03
   7   10.000       9.768       9.453       8.966       8.246       7.395       6.166       4.499       2.419      2.1577E-03
   8   10.000       9.776       9.481       9.041       8.386       7.471       6.194       4.507       2.421      2.1598E-03
   9   10.000       9.779       9.491       9.063       8.421       7.493       6.204       4.510       2.422      2.1608E-03
  10   10.000       9.780       9.493       9.069       8.429       7.499       6.206       4.511       2.422      2.1610E-03
1
              HEAD IN LAYER   2 AT END OF TIME STEP  21 IN STRESS PERIOD    3
  ---------------------------------------------------------------------------

            1           2           3           4           5           6           7           8           9          10
 ........................................................................................................................
   1   10.000       9.775       9.482       9.049       8.403       7.473       6.184       4.493       2.410      5.0476E-03
   2   10.000       9.772       9.472       9.026       8.367       7.450       6.174       4.490       2.409      5.0457E-03
   3   10.000       9.763       9.442       8.946       8.220       7.370       6.144       4.481       2.407      5.0408E-03
   4    9.999       9.746       9.374       8.724       7.669       7.144       6.075       4.463       2.403      5.0324E-03
   5    9.999       9.729       9.291       8.317       5.435       6.726       5.990       4.446       2.400      5.0255E-03
   6    9.999       9.746       9.374       8.724       7.669       7.144       6.075       4.463       2.403      5.0324E-03
   7   10.000       9.763       9.442       8.946       8.220       7.370       6.144       4.481       2.407      5.0409E-03
   8   10.000       9.772       9.472       9.027       8.368       7.450       6.175       4.490       2.409      5.0458E-03
   9   10.000       9.775       9.483       9.051       8.405       7.475       6.185       4.494       2.410      5.0478E-03
  10   10.000       9.776       9.486       9.057       8.414       7.481       6.188       4.495       2.410      5.0485E-03
1
              HEAD IN LAYER   3 AT END OF TIME STEP  21 IN STRESS PERIOD    3
  ---------------------------------------------------------------------------

            1           2           3           4           5           6           7           8           9          10
 ........................................................................................................................
   1   10.000       9.772       9.476       9.039       8.390       7.457       6.167       4.477       2.397      5.6493E-03
   2   10.000       9.769       9.465       9.015       8.352       7.433       6.157       4.473       2.396      5.6471E-03
   3   10.000       9.759       9.433       8.931       8.199       7.348       6.124       4.464       2.394      5.6412E-03
   4    9.999       9.741       9.362       8.701       7.642       7.115       6.052       4.445       2.389      5.6310E-03
   5    9.999       9.724       9.276       8.293       5.727       6.698       5.964       4.426       2.386      5.6229E-03
   6    9.999       9.741       9.362       8.701       7.642       7.115       6.052       4.445       2.389      5.6311E-03
   7   10.000       9.759       9.433       8.931       8.199       7.348       6.125       4.464       2.394      5.6412E-03
   8   10.000       9.769       9.465       9.015       8.352       7.433       6.157       4.474       2.396      5.6471E-03
   9   10.000       9.772       9.477       9.041       8.392       7.459       6.168       4.477       2.397      5.6497E-03
  10   10.000       9.774       9.480       9.048       8.402       7.466       6.171       4.479       2.398      5.6505E-03
1
              HEAD IN LAYER   4 AT END OF TIME STEP  21 IN STRESS PERIOD    3
  ---------------------------------------------------------------------------

            1           2           3           4           5           6           7           8           9          10
 ........................................................................................................................
   1   10.000       9.770       9.472       9.033       8.381       7.447       6.156       4.466       2.389      5.7091E-03
   2   10.000       9.766       9.460       9.007       8.342       7.421       6.145       4.462       2.388      5.7067E-03
   3   10.000       9.756       9.427       8.920       8.185       7.334       6.111       4.452       2.385      5.7004E-03
   4    9.999       9.738       9.354       8.686       7.627       7.096       6.037       4.432       2.380      5.6896E-03
   5    9.999       9.720       9.267       8.279       5.912       6.681       5.947       4.414       2.377      5.6811E-03
   6    9.999       9.738       9.354       8.686       7.627       7.096       6.037       4.432       2.380      5.6896E-03
   7   10.000       9.756       9.427       8.920       8.185       7.334       6.111       4.452       2.385      5.7004E-03
   8   10.000       9.767       9.461       9.008       8.342       7.422       6.145       4.463       2.388      5.7068E-03
   9   10.000       9.771       9.473       9.035       8.384       7.449       6.157       4.467       2.389      5.7095E-03
  10   10.000       9.772       9.476       9.042       8.394       7.456       6.160       4.468       2.389      5.7104E-03
1
              HEAD IN LAYER   5 AT END OF TIME STEP  21 IN STRESS PERIOD    3
  ---------------------------------------------------------------------------

            1           2           3           4           5           6           7           8           9          10
 ........................................................................................................................
   1   10.000       9.769       9.469       9.029       8.376       7.441       6.150       4.461       2.384      5.7090E-03
   2   10.000       9.765       9.458       9.004       8.337       7.416       6.139       4.457       2.383      5.7065E-03
   3   10.000       9.755       9.424       8.915       8.178       7.327       6.105       4.446       2.381      5.7000E-03
   4    9.999       9.736       9.350       8.678       7.620       7.087       6.029       4.426       2.376      5.6889E-03
   5    9.999       9.718       9.262       8.273       6.002       6.673       5.939       4.407       2.372      5.6802E-03
   6    9.999       9.736       9.350       8.678       7.620       7.087       6.029       4.426       2.376      5.6890E-03
   7   10.000       9.755       9.424       8.915       8.178       7.327       6.105       4.446       2.381      5.7000E-03
   8   10.000       9.765       9.458       9.004       8.337       7.416       6.139       4.457       2.383      5.7066E-03
   9   10.000       9.770       9.471       9.032       8.380       7.444       6.151       4.461       2.385      5.7094E-03
  10   10.000       9.771       9.474       9.039       8.390       7.451       6.155       4.463       2.385      5.7103E-03

 HEAD WILL BE SAVED ON UNIT   51 AT END OF TIME STEP   21, STRESS PERIOD    3

 DRAWDOWN WILL BE SAVED ON UNIT   52 AT END OF TIME STEP   21, STRESS PERIOD    3
1
  VOLUMETRIC BUDGET FOR ENTIRE MODEL AT END OF TIME STEP   21, STRESS PERIOD   3
  ------------------------------------------------------------------------------

     CUMULATIVE VOLUMES      L**3       RATES FOR THIS TIME STEP      L**3/T
     ------------------                 ------------------------

           IN:                                      IN:
           ---                                      ---
             STORAGE =      351923.6875               STORAGE =        1568.1516
       CONSTANT HEAD =           0.0000         CONSTANT HEAD =           0.0000
               WELLS =           0.0000                 WELLS =           0.0000
     HEAD DEP BOUNDS =        4821.0850       HEAD DEP BOUNDS =         143.8232

            TOTAL IN =      356744.7812              TOTAL IN =        1711.9749

          OUT:                                     OUT:
          ----                                     ----
             STORAGE =           0.0000               STORAGE =           0.0000
       CONSTANT HEAD =           0.0000         CONSTANT HEAD =           0.0000
               WELLS =       10500.0000                 WELLS =         500.0000
     HEAD DEP BOUNDS =      346245.8438       HEAD DEP BOUNDS =        1211.9923

           TOTAL OUT =      356745.8438             TOTAL OUT =        1711.9923

            IN - OUT =          -1.0625              IN - OUT =      -1.7456E-02

 PERCENT DISCREPANCY =          -0.00     PERCENT DISCREPANCY =          -0.00






         TIME SUMMARY AT END OF TIME STEP   21 IN STRESS PERIOD    3
                    SECONDS     MINUTES      HOURS       DAYS        YEARS
                    -----------------------------------------------------------
   TIME STEP LENGTH  86400.      1440.0      24.000      1.0000     2.73785E-03
 STRESS PERIOD TIME 1.81440E+06  30240.      504.00      21.000     5.74949E-02
         TOTAL TIME 1.05408E+07 1.75680E+05  2928.0      122.00     0.33402    
1
 
 SOLVING FOR HEAD 

 OUTPUT CONTROL FOR STRESS PERIOD    3   TIME STEP   22
    SAVE HEAD FOR ALL LAYERS
    SAVE DRAWDOWN FOR ALL LAYERS
    SAVE BUDGET
    PRINT HEAD FOR ALL LAYERS
    PRINT BUDGET
 UBDSV1 SAVING "         STORAGE" ON UNIT  53 AT TIME STEP 22, STRESS PERIOD   3
 UBDSV2 SAVING "   CONSTANT HEAD" ON UNIT  53 AT TIME STEP 22, STRESS PERIOD   3
 UBDSV1 SAVING "FLOW RIGHT FACE " ON UNIT  53 AT TIME STEP 22, STRESS PERIOD   3
 UBDSV1 SAVING "FLOW FRONT FACE " ON UNIT  53 AT TIME STEP 22, STRESS PERIOD   3
 UBDSV1 SAVING "FLOW LOWER FACE " ON UNIT  53 AT TIME STEP 22, STRESS PERIOD   3
1
              HEAD IN LAYER   1 AT END OF TIME STEP  22 IN STRESS PERIOD    3
  ---------------------------------------------------------------------------

            1           2           3           4           5           6           7           8           9          10
 ........................................................................................................................
   1   10.000       9.775       9.481       9.048       8.402       7.472       6.183       4.493       2.412      2.1510E-03
   2   10.000       9.772       9.471       9.025       8.366       7.449       6.173       4.490       2.411      2.1500E-03
   3   10.000       9.763       9.441       8.945       8.218       7.367       6.143       4.481       2.409      2.1477E-03
   4    9.999       9.745       9.373       8.722       7.663       7.141       6.073       4.462       2.404      2.1435E-03
   5    9.999       9.729       9.290       8.314       5.037       6.717       5.986       4.445       2.401      2.1402E-03
   6    9.999       9.745       9.373       8.722       7.663       7.141       6.073       4.462       2.404      2.1435E-03
   7   10.000       9.763       9.441       8.945       8.218       7.368       6.143       4.481       2.409      2.1477E-03
   8   10.000       9.772       9.472       9.026       8.366       7.449       6.174       4.490       2.411      2.1501E-03
   9   10.000       9.775       9.482       9.050       8.404       7.474       6.184       4.494       2.412      2.1511E-03
  10   10.000       9.776       9.486       9.056       8.413       7.480       6.187       4.495       2.412      2.1514E-03
1
              HEAD IN LAYER   2 AT END OF TIME STEP  22 IN STRESS PERIOD    3
  ---------------------------------------------------------------------------

            1           2           3           4           5           6           7           8           9          10
 ........................................................................................................................
   1   10.000       9.771       9.473       9.036       8.385       7.453       6.164       4.477       2.400      5.0267E-03
   2   10.000       9.767       9.462       9.011       8.347       7.428       6.154       4.473       2.399      5.0245E-03
   3   10.000       9.757       9.429       8.925       8.192       7.342       6.121       4.463       2.397      5.0190E-03
   4    9.999       9.739       9.357       8.693       7.625       7.106       6.047       4.443       2.392      5.0096E-03
   5    9.999       9.722       9.271       8.278       5.371       6.679       5.958       4.425       2.389      5.0021E-03
   6    9.999       9.739       9.357       8.693       7.625       7.107       6.047       4.443       2.392      5.0096E-03
   7   10.000       9.757       9.429       8.925       8.192       7.342       6.121       4.463       2.397      5.0190E-03
   8   10.000       9.767       9.463       9.011       8.347       7.429       6.154       4.473       2.399      5.0246E-03
   9   10.000       9.771       9.475       9.038       8.388       7.455       6.166       4.477       2.400      5.0270E-03
  10   10.000       9.773       9.478       9.045       8.398       7.462       6.169       4.478       2.401      5.0277E-03
1
              HEAD IN LAYER   3 AT END OF TIME STEP  22 IN STRESS PERIOD    3
  ---------------------------------------------------------------------------

            1           2           3           4           5           6           7           8           9          10
 ........................................................................................................................
   1   10.000       9.768       9.467       9.026       8.372       7.437       6.148       4.461       2.387      5.6262E-03
   2   10.000       9.764       9.455       9.000       8.332       7.411       6.136       4.457       2.386      5.6236E-03
   3   10.000       9.753       9.420       8.910       8.171       7.321       6.101       4.446       2.383      5.6170E-03
   4    9.999       9.734       9.345       8.670       7.599       7.078       6.024       4.425       2.379      5.6058E-03
   5    9.999       9.716       9.256       8.254       5.666       6.651       5.933       4.406       2.375      5.5969E-03
   6    9.999       9.734       9.345       8.670       7.599       7.078       6.024       4.425       2.379      5.6058E-03
   7   10.000       9.753       9.420       8.910       8.171       7.321       6.101       4.446       2.383      5.6170E-03
   8   10.000       9.764       9.456       9.000       8.332       7.412       6.136       4.457       2.386      5.6237E-03
   9   10.000       9.768       9.468       9.028       8.376       7.440       6.149       4.461       2.388      5.6266E-03
  10   10.000       9.770       9.472       9.036       8.386       7.447       6.152       4.463       2.388      5.6276E-03
1
              HEAD IN LAYER   4 AT END OF TIME STEP  22 IN STRESS PERIOD    3
  ---------------------------------------------------------------------------

            1           2           3           4           5           6           7           8           9          10
 ........................................................................................................................
   1   10.000       9.766       9.463       9.019       8.363       7.427       6.136       4.450       2.379      5.6859E-03
   2   10.000       9.762       9.451       8.992       8.321       7.400       6.124       4.446       2.378      5.6831E-03
   3   10.000       9.751       9.414       8.899       8.157       7.306       6.088       4.434       2.375      5.6760E-03
   4    9.999       9.731       9.337       8.655       7.584       7.059       6.009       4.413       2.370      5.6641E-03
   5    9.999       9.712       9.247       8.241       5.853       6.635       5.916       4.393       2.366      5.6548E-03
   6    9.999       9.731       9.337       8.655       7.584       7.059       6.009       4.413       2.370      5.6641E-03
   7   10.000       9.751       9.414       8.899       8.157       7.307       6.088       4.434       2.375      5.6761E-03
   8   10.000       9.762       9.451       8.993       8.322       7.400       6.125       4.446       2.378      5.6832E-03
   9   10.000       9.766       9.464       9.022       8.367       7.430       6.138       4.450       2.379      5.6864E-03
  10   10.000       9.768       9.468       9.030       8.378       7.437       6.142       4.452       2.380      5.6874E-03
1
              HEAD IN LAYER   5 AT END OF TIME STEP  22 IN STRESS PERIOD    3
  ---------------------------------------------------------------------------

            1           2           3           4           5           6           7           8           9          10
 ........................................................................................................................
   1   10.000       9.765       9.461       9.016       8.359       7.422       6.131       4.445       2.375      5.6858E-03
   2   10.000       9.761       9.448       8.988       8.316       7.394       6.118       4.440       2.374      5.6830E-03
   3   10.000       9.749       9.411       8.894       8.150       7.299       6.081       4.428       2.370      5.6757E-03
   4    9.999       9.729       9.333       8.647       7.577       7.049       6.001       4.407       2.365      5.6635E-03
   5    9.999       9.710       9.242       8.234       5.944       6.627       5.907       4.387       2.361      5.6540E-03
   6    9.999       9.729       9.333       8.647       7.577       7.049       6.001       4.407       2.365      5.6635E-03
   7   10.000       9.750       9.411       8.894       8.150       7.299       6.081       4.429       2.371      5.6757E-03
   8   10.000       9.761       9.449       8.989       8.317       7.395       6.119       4.440       2.374      5.6831E-03
   9   10.000       9.765       9.462       9.019       8.363       7.424       6.132       4.445       2.375      5.6863E-03
  10   10.000       9.767       9.466       9.027       8.374       7.432       6.136       4.447       2.375      5.6874E-03

 HEAD WILL BE SAVED ON UNIT   51 AT END OF TIME STEP   22, STRESS PERIOD    3

 DRAWDOWN WILL BE SAVED ON UNIT   52 AT END OF TIME STEP   22, STRESS PERIOD    3
1
  VOLUMETRIC BUDGET FOR ENTIRE MODEL AT END OF TIME STEP   22, STRESS PERIOD   3
  ------------------------------------------------------------------------------

     CUMULATIVE VOLUMES      L**3       RATES FOR THIS TIME STEP      L**3/T
     ------------------                 ------------------------

           IN:                                      IN:
           ---                                      ---
             STORAGE =      353483.4062               STORAGE =        1559.7047
       CONSTANT HEAD =           0.0000         CONSTANT HEAD =           0.0000
               WELLS =           0.0000                 WELLS =           0.0000
     HEAD DEP BOUNDS =        4968.1455       HEAD DEP BOUNDS =         147.0603

            TOTAL IN =      358451.5625              TOTAL IN =        1706.7650

          OUT:                                     OUT:
          ----                                     ----
             STORAGE =           0.0000               STORAGE =           0.0000
       CONSTANT HEAD =           0.0000         CONSTANT HEAD =           0.0000
               WELLS =       11000.0000                 WELLS =         500.0000
     HEAD DEP BOUNDS =      347452.6250       HEAD DEP BOUNDS =        1206.7766

           TOTAL OUT =      358452.6250             TOTAL OUT =        1706.7766

            IN - OUT =          -1.0625              IN - OUT =      -1.1597E-02

 PERCENT DISCREPANCY =          -0.00     PERCENT DISCREPANCY =          -0.00






         TIME SUMMARY AT END OF TIME STEP   22 IN STRESS PERIOD    3
                    SECONDS     MINUTES      HOURS       DAYS        YEARS
                    -----------------------------------------------------------
   TIME STEP LENGTH  86400.      1440.0      24.000      1.0000     2.73785E-03
 STRESS PERIOD TIME 1.90080E+06  31680.      528.00      22.000     6.02327E-02
         TOTAL TIME 1.06272E+07 1.77120E+05  2952.0      123.00     0.33676    
1
 
 SOLVING FOR HEAD 

 OUTPUT CONTROL FOR STRESS PERIOD    3   TIME STEP   23
    SAVE HEAD FOR ALL LAYERS
    SAVE DRAWDOWN FOR ALL LAYERS
    SAVE BUDGET
    PRINT HEAD FOR ALL LAYERS
    PRINT BUDGET
 UBDSV1 SAVING "         STORAGE" ON UNIT  53 AT TIME STEP 23, STRESS PERIOD   3
 UBDSV2 SAVING "   CONSTANT HEAD" ON UNIT  53 AT TIME STEP 23, STRESS PERIOD   3
 UBDSV1 SAVING "FLOW RIGHT FACE " ON UNIT  53 AT TIME STEP 23, STRESS PERIOD   3
 UBDSV1 SAVING "FLOW FRONT FACE " ON UNIT  53 AT TIME STEP 23, STRESS PERIOD   3
 UBDSV1 SAVING "FLOW LOWER FACE " ON UNIT  53 AT TIME STEP 23, STRESS PERIOD   3
1
              HEAD IN LAYER   1 AT END OF TIME STEP  23 IN STRESS PERIOD    3
  ---------------------------------------------------------------------------

            1           2           3           4           5           6           7           8           9          10
 ........................................................................................................................
   1   10.000       9.771       9.473       9.035       8.384       7.452       6.164       4.477       2.402      2.1412E-03
   2   10.000       9.767       9.462       9.010       8.346       7.427       6.153       4.473       2.401      2.1402E-03
   3   10.000       9.757       9.429       8.924       8.190       7.340       6.119       4.463       2.398      2.1375E-03
   4    9.999       9.739       9.356       8.691       7.619       7.103       6.045       4.443       2.394      2.1330E-03
   5    9.999       9.721       9.270       8.274       4.974       6.670       5.955       4.424       2.390      2.1294E-03
   6    9.999       9.739       9.356       8.691       7.619       7.103       6.045       4.443       2.394      2.1330E-03
   7   10.000       9.757       9.429       8.924       8.190       7.340       6.119       4.463       2.398      2.1376E-03
   8   10.000       9.767       9.462       9.010       8.346       7.428       6.153       4.473       2.401      2.1402E-03
   9   10.000       9.771       9.474       9.037       8.388       7.454       6.165       4.477       2.402      2.1415E-03
  10   10.000       9.772       9.478       9.044       8.397       7.461       6.168       4.479       2.402      2.1419E-03
1
              HEAD IN LAYER   2 AT END OF TIME STEP  23 IN STRESS PERIOD    3
  ---------------------------------------------------------------------------

            1           2           3           4           5           6           7           8           9          10
 ........................................................................................................................
   1   10.000       9.767       9.465       9.022       8.368       7.433       6.145       4.460       2.390      5.0059E-03
   2   10.000       9.763       9.453       8.995       8.327       7.407       6.133       4.456       2.389      5.0035E-03
   3   10.000       9.752       9.417       8.904       8.164       7.315       6.097       4.445       2.386      4.9973E-03
   4    9.999       9.732       9.340       8.662       7.582       7.069       6.019       4.424       2.381      4.9869E-03
   5    9.999       9.714       9.251       8.239       5.310       6.633       5.926       4.404       2.377      4.9788E-03
   6    9.999       9.732       9.340       8.662       7.582       7.069       6.019       4.424       2.381      4.9869E-03
   7   10.000       9.752       9.417       8.904       8.164       7.315       6.097       4.445       2.386      4.9973E-03
   8   10.000       9.763       9.453       8.996       8.327       7.407       6.133       4.456       2.389      5.0036E-03
   9   10.000       9.767       9.466       9.025       8.371       7.436       6.146       4.461       2.390      5.0064E-03
  10   10.000       9.769       9.470       9.033       8.382       7.444       6.150       4.462       2.391      5.0073E-03
1
              HEAD IN LAYER   3 AT END OF TIME STEP  23 IN STRESS PERIOD    3
  ---------------------------------------------------------------------------

            1           2           3           4           5           6           7           8           9          10
 ........................................................................................................................
   1   10.000       9.764       9.458       9.013       8.355       7.418       6.128       4.444       2.378      5.6034E-03
   2   10.000       9.759       9.446       8.984       8.311       7.389       6.115       4.440       2.376      5.6004E-03
   3    9.999       9.748       9.408       8.888       8.143       7.293       6.078       4.428       2.373      5.5930E-03
   4    9.999       9.727       9.328       8.639       7.556       7.040       5.996       4.405       2.368      5.5806E-03
   5    9.999       9.708       9.236       8.216       5.608       6.606       5.901       4.385       2.364      5.5710E-03
   6    9.999       9.727       9.328       8.639       7.556       7.040       5.996       4.405       2.368      5.5806E-03
   7    9.999       9.748       9.408       8.889       8.143       7.293       6.078       4.428       2.373      5.5930E-03
   8   10.000       9.760       9.446       8.985       8.312       7.390       6.116       4.440       2.376      5.6006E-03
   9   10.000       9.764       9.460       9.015       8.359       7.421       6.130       4.445       2.378      5.6039E-03
  10   10.000       9.766       9.464       9.024       8.370       7.429       6.134       4.447       2.378      5.6050E-03
1
              HEAD IN LAYER   4 AT END OF TIME STEP  23 IN STRESS PERIOD    3
  ---------------------------------------------------------------------------

            1           2           3           4           5           6           7           8           9          10
 ........................................................................................................................
   1   10.000       9.762       9.454       9.006       8.346       7.407       6.117       4.434       2.369      5.6629E-03
   2   10.000       9.757       9.441       8.976       8.301       7.378       6.104       4.429       2.368      5.6598E-03
   3    9.999       9.745       9.402       8.878       8.129       7.279       6.064       4.416       2.365      5.6518E-03
   4    9.999       9.723       9.320       8.624       7.542       7.022       5.981       4.393       2.359      5.6387E-03
   5    9.999       9.704       9.227       8.203       5.796       6.590       5.885       4.372       2.355      5.6287E-03
   6    9.999       9.723       9.320       8.624       7.542       7.022       5.981       4.393       2.359      5.6387E-03
   7    9.999       9.745       9.402       8.878       8.129       7.279       6.065       4.416       2.365      5.6519E-03
   8   10.000       9.757       9.441       8.977       8.302       7.379       6.104       4.429       2.368      5.6599E-03
   9   10.000       9.762       9.456       9.009       8.350       7.410       6.119       4.434       2.370      5.6635E-03
  10   10.000       9.764       9.460       9.018       8.362       7.419       6.123       4.436       2.370      5.6647E-03
1
              HEAD IN LAYER   5 AT END OF TIME STEP  23 IN STRESS PERIOD    3
  ---------------------------------------------------------------------------

            1           2           3           4           5           6           7           8           9          10
 ........................................................................................................................
   1   10.000       9.761       9.452       9.003       8.342       7.402       6.111       4.428       2.365      5.6629E-03
   2   10.000       9.756       9.438       8.973       8.296       7.372       6.098       4.424       2.364      5.6596E-03
   3    9.999       9.744       9.399       8.873       8.122       7.272       6.058       4.411       2.360      5.6515E-03
   4    9.999       9.722       9.316       8.617       7.535       7.012       5.973       4.387       2.355      5.6381E-03
   5    9.999       9.702       9.222       8.197       5.888       6.583       5.876       4.366       2.350      5.6279E-03
   6    9.999       9.722       9.316       8.617       7.535       7.012       5.973       4.387       2.355      5.6381E-03
   7    9.999       9.744       9.399       8.873       8.122       7.272       6.058       4.411       2.360      5.6515E-03
   8   10.000       9.756       9.439       8.973       8.297       7.373       6.098       4.424       2.364      5.6598E-03
   9   10.000       9.761       9.454       9.006       8.346       7.405       6.113       4.429       2.365      5.6635E-03
  10   10.000       9.763       9.458       9.015       8.358       7.414       6.117       4.431       2.366      5.6647E-03

 HEAD WILL BE SAVED ON UNIT   51 AT END OF TIME STEP   23, STRESS PERIOD    3

 DRAWDOWN WILL BE SAVED ON UNIT   52 AT END OF TIME STEP   23, STRESS PERIOD    3
1
  VOLUMETRIC BUDGET FOR ENTIRE MODEL AT END OF TIME STEP   23, STRESS PERIOD   3
  ------------------------------------------------------------------------------

     CUMULATIVE VOLUMES      L**3       RATES FOR THIS TIME STEP      L**3/T
     ------------------                 ------------------------

           IN:                                      IN:
           ---                                      ---
             STORAGE =      355034.6562               STORAGE =        1551.2539
       CONSTANT HEAD =           0.0000         CONSTANT HEAD =           0.0000
               WELLS =           0.0000                 WELLS =           0.0000
     HEAD DEP BOUNDS =        5118.4712       HEAD DEP BOUNDS =         150.3256

            TOTAL IN =      360153.1250              TOTAL IN =        1701.5795

          OUT:                                     OUT:
          ----                                     ----
             STORAGE =           0.0000               STORAGE =           0.0000
       CONSTANT HEAD =           0.0000         CONSTANT HEAD =           0.0000
               WELLS =       11500.0000                 WELLS =         500.0000
     HEAD DEP BOUNDS =      348654.2188       HEAD DEP BOUNDS =        1201.5948

           TOTAL OUT =      360154.2188             TOTAL OUT =        1701.5948

            IN - OUT =          -1.0938              IN - OUT =      -1.5381E-02

 PERCENT DISCREPANCY =          -0.00     PERCENT DISCREPANCY =          -0.00






         TIME SUMMARY AT END OF TIME STEP   23 IN STRESS PERIOD    3
                    SECONDS     MINUTES      HOURS       DAYS        YEARS
                    -----------------------------------------------------------
   TIME STEP LENGTH  86400.      1440.0      24.000      1.0000     2.73785E-03
 STRESS PERIOD TIME 1.98720E+06  33120.      552.00      23.000     6.29706E-02
         TOTAL TIME 1.07136E+07 1.78560E+05  2976.0      124.00     0.33949    
1
 
 SOLVING FOR HEAD 

 OUTPUT CONTROL FOR STRESS PERIOD    3   TIME STEP   24
    SAVE HEAD FOR ALL LAYERS
    SAVE DRAWDOWN FOR ALL LAYERS
    SAVE BUDGET
    PRINT HEAD FOR ALL LAYERS
    PRINT BUDGET
 UBDSV1 SAVING "         STORAGE" ON UNIT  53 AT TIME STEP 24, STRESS PERIOD   3
 UBDSV2 SAVING "   CONSTANT HEAD" ON UNIT  53 AT TIME STEP 24, STRESS PERIOD   3
 UBDSV1 SAVING "FLOW RIGHT FACE " ON UNIT  53 AT TIME STEP 24, STRESS PERIOD   3
 UBDSV1 SAVING "FLOW FRONT FACE " ON UNIT  53 AT TIME STEP 24, STRESS PERIOD   3
 UBDSV1 SAVING "FLOW LOWER FACE " ON UNIT  53 AT TIME STEP 24, STRESS PERIOD   3
1
              HEAD IN LAYER   1 AT END OF TIME STEP  24 IN STRESS PERIOD    3
  ---------------------------------------------------------------------------

            1           2           3           4           5           6           7           8           9          10
 ........................................................................................................................
   1   10.000       9.766       9.464       9.022       8.367       7.432       6.144       4.460       2.392      2.1317E-03
   2   10.000       9.762       9.452       8.995       8.325       7.405       6.132       4.456       2.391      2.1305E-03
   3   10.000       9.752       9.416       8.903       8.162       7.312       6.096       4.445       2.388      2.1275E-03
   4    9.999       9.731       9.339       8.660       7.576       7.065       6.017       4.423       2.383      2.1227E-03
   5    9.999       9.713       9.250       8.235       4.914       6.623       5.923       4.403       2.379      2.1188E-03
   6    9.999       9.731       9.339       8.660       7.576       7.065       6.017       4.423       2.383      2.1227E-03
   7   10.000       9.752       9.416       8.903       8.162       7.313       6.096       4.445       2.388      2.1275E-03
   8   10.000       9.763       9.452       8.995       8.326       7.406       6.132       4.456       2.391      2.1306E-03
   9   10.000       9.767       9.466       9.024       8.371       7.435       6.146       4.461       2.392      2.1320E-03
  10   10.000       9.768       9.470       9.032       8.381       7.443       6.149       4.462       2.393      2.1324E-03
1
              HEAD IN LAYER   2 AT END OF TIME STEP  24 IN STRESS PERIOD    3
  ---------------------------------------------------------------------------

            1           2           3           4           5           6           7           8           9          10
 ........................................................................................................................
   1   10.000       9.762       9.456       9.009       8.351       7.414       6.125       4.444       2.381      4.9855E-03
   2   10.000       9.758       9.443       8.980       8.306       7.385       6.112       4.439       2.379      4.9827E-03
   3    9.999       9.746       9.404       8.883       8.136       7.287       6.074       4.427       2.376      4.9757E-03
   4    9.999       9.725       9.323       8.632       7.540       7.032       5.991       4.404       2.371      4.9643E-03
   5    9.999       9.705       9.231       8.201       5.252       6.587       5.895       4.384       2.366      4.9556E-03
   6    9.999       9.725       9.323       8.632       7.540       7.032       5.991       4.404       2.371      4.9644E-03
   7    9.999       9.746       9.404       8.883       8.136       7.287       6.074       4.427       2.376      4.9758E-03
   8   10.000       9.758       9.443       8.981       8.307       7.385       6.113       4.440       2.379      4.9828E-03
   9   10.000       9.763       9.458       9.012       8.354       7.417       6.127       4.445       2.381      4.9860E-03
  10   10.000       9.765       9.462       9.020       8.366       7.425       6.131       4.446       2.381      4.9870E-03
1
              HEAD IN LAYER   3 AT END OF TIME STEP  24 IN STRESS PERIOD    3
  ---------------------------------------------------------------------------

            1           2           3           4           5           6           7           8           9          10
 ........................................................................................................................
   1   10.000       9.759       9.450       8.999       8.337       7.398       6.109       4.428       2.368      5.5807E-03
   2   10.000       9.755       9.436       8.968       8.291       7.367       6.095       4.423       2.367      5.5774E-03
   3    9.999       9.742       9.395       8.867       8.115       7.266       6.054       4.410       2.363      5.5691E-03
   4    9.999       9.720       9.311       8.609       7.515       7.003       5.968       4.386       2.357      5.5555E-03
   5    9.999       9.700       9.216       8.178       5.552       6.561       5.870       4.365       2.353      5.5452E-03
   6    9.999       9.720       9.311       8.609       7.515       7.004       5.968       4.386       2.357      5.5555E-03
   7    9.999       9.742       9.395       8.867       8.115       7.266       6.054       4.410       2.363      5.5691E-03
   8   10.000       9.755       9.436       8.969       8.292       7.368       6.095       4.423       2.367      5.5776E-03
   9   10.000       9.760       9.451       9.002       8.342       7.401       6.111       4.429       2.368      5.5813E-03
  10   10.000       9.762       9.456       9.011       8.354       7.410       6.115       4.431       2.369      5.5826E-03
1
              HEAD IN LAYER   4 AT END OF TIME STEP  24 IN STRESS PERIOD    3
  ---------------------------------------------------------------------------

            1           2           3           4           5           6           7           8           9          10
 ........................................................................................................................
   1   10.000       9.757       9.445       8.992       8.329       7.388       6.098       4.418       2.360      5.6402E-03
   2   10.000       9.752       9.431       8.961       8.281       7.356       6.083       4.412       2.358      5.6366E-03
   3    9.999       9.739       9.389       8.857       8.101       7.251       6.041       4.399       2.355      5.6278E-03
   4    9.999       9.716       9.303       8.594       7.501       6.985       5.953       4.374       2.349      5.6135E-03
   5    9.999       9.696       9.207       8.165       5.742       6.546       5.853       4.352       2.344      5.6027E-03
   6    9.999       9.716       9.303       8.594       7.501       6.985       5.953       4.374       2.349      5.6135E-03
   7    9.999       9.739       9.389       8.857       8.101       7.252       6.041       4.399       2.355      5.6278E-03
   8   10.000       9.753       9.431       8.962       8.282       7.357       6.084       4.413       2.358      5.6368E-03
   9   10.000       9.758       9.447       8.996       8.333       7.391       6.100       4.418       2.360      5.6408E-03
  10   10.000       9.760       9.452       9.005       8.346       7.401       6.104       4.420       2.361      5.6422E-03
1
              HEAD IN LAYER   5 AT END OF TIME STEP  24 IN STRESS PERIOD    3
  ---------------------------------------------------------------------------

            1           2           3           4           5           6           7           8           9          10
 ........................................................................................................................
   1   10.000       9.756       9.443       8.989       8.324       7.383       6.092       4.412       2.356      5.6402E-03
   2   10.000       9.751       9.428       8.957       8.275       7.350       6.077       4.407       2.354      5.6365E-03
   3    9.999       9.738       9.386       8.852       8.094       7.244       6.035       4.393       2.350      5.6275E-03
   4    9.999       9.714       9.298       8.587       7.494       6.976       5.945       4.368       2.344      5.6128E-03
   5    9.999       9.694       9.202       8.160       5.834       6.539       5.845       4.345       2.340      5.6019E-03
   6    9.999       9.714       9.299       8.587       7.494       6.976       5.945       4.368       2.344      5.6129E-03
   7    9.999       9.738       9.386       8.852       8.094       7.245       6.035       4.393       2.350      5.6275E-03
   8   10.000       9.752       9.429       8.958       8.277       7.351       6.078       4.407       2.354      5.6367E-03
   9   10.000       9.757       9.445       8.993       8.329       7.386       6.094       4.413       2.356      5.6409E-03
  10   10.000       9.759       9.450       9.002       8.342       7.396       6.099       4.415       2.357      5.6423E-03

 HEAD WILL BE SAVED ON UNIT   51 AT END OF TIME STEP   24, STRESS PERIOD    3

 DRAWDOWN WILL BE SAVED ON UNIT   52 AT END OF TIME STEP   24, STRESS PERIOD    3
1
  VOLUMETRIC BUDGET FOR ENTIRE MODEL AT END OF TIME STEP   24, STRESS PERIOD   3
  ------------------------------------------------------------------------------

     CUMULATIVE VOLUMES      L**3       RATES FOR THIS TIME STEP      L**3/T
     ------------------                 ------------------------

           IN:                                      IN:
           ---                                      ---
             STORAGE =      356577.4688               STORAGE =        1542.8054
       CONSTANT HEAD =           0.0000         CONSTANT HEAD =           0.0000
               WELLS =           0.0000                 WELLS =           0.0000
     HEAD DEP BOUNDS =        5272.1143       HEAD DEP BOUNDS =         153.6428

            TOTAL IN =      361849.5938              TOTAL IN =        1696.4482

          OUT:                                     OUT:
          ----                                     ----
             STORAGE =           0.0000               STORAGE =           0.0000
       CONSTANT HEAD =           0.0000         CONSTANT HEAD =           0.0000
               WELLS =       12000.0000                 WELLS =         500.0000
     HEAD DEP BOUNDS =      349850.6875       HEAD DEP BOUNDS =        1196.4564

           TOTAL OUT =      361850.6875             TOTAL OUT =        1696.4564

            IN - OUT =          -1.0938              IN - OUT =      -8.1787E-03

 PERCENT DISCREPANCY =          -0.00     PERCENT DISCREPANCY =          -0.00






         TIME SUMMARY AT END OF TIME STEP   24 IN STRESS PERIOD    3
                    SECONDS     MINUTES      HOURS       DAYS        YEARS
                    -----------------------------------------------------------
   TIME STEP LENGTH  86400.      1440.0      24.000      1.0000     2.73785E-03
 STRESS PERIOD TIME 2.07360E+06  34560.      576.00      24.000     6.57084E-02
         TOTAL TIME 1.08000E+07 1.80000E+05  3000.0      125.00     0.34223    
1
 
 SOLVING FOR HEAD 

 OUTPUT CONTROL FOR STRESS PERIOD    3   TIME STEP   25
    SAVE HEAD FOR ALL LAYERS
    SAVE DRAWDOWN FOR ALL LAYERS
    SAVE BUDGET
    PRINT HEAD FOR ALL LAYERS
    PRINT BUDGET
 UBDSV1 SAVING "         STORAGE" ON UNIT  53 AT TIME STEP 25, STRESS PERIOD   3
 UBDSV2 SAVING "   CONSTANT HEAD" ON UNIT  53 AT TIME STEP 25, STRESS PERIOD   3
 UBDSV1 SAVING "FLOW RIGHT FACE " ON UNIT  53 AT TIME STEP 25, STRESS PERIOD   3
 UBDSV1 SAVING "FLOW FRONT FACE " ON UNIT  53 AT TIME STEP 25, STRESS PERIOD   3
 UBDSV1 SAVING "FLOW LOWER FACE " ON UNIT  53 AT TIME STEP 25, STRESS PERIOD   3
1
              HEAD IN LAYER   1 AT END OF TIME STEP  25 IN STRESS PERIOD    3
  ---------------------------------------------------------------------------

            1           2           3           4           5           6           7           8           9          10
 ........................................................................................................................
   1   10.000       9.762       9.456       9.008       8.350       7.413       6.125       4.444       2.382      2.1224E-03
   2   10.000       9.758       9.442       8.979       8.305       7.383       6.111       4.439       2.381      2.1211E-03
   3    9.999       9.746       9.404       8.882       8.134       7.285       6.072       4.427       2.378      2.1178E-03
   4    9.999       9.724       9.323       8.630       7.534       7.028       5.989       4.403       2.372      2.1123E-03
   5    9.999       9.705       9.230       8.197       4.857       6.578       5.892       4.382       2.368      2.1081E-03
   6    9.999       9.724       9.323       8.630       7.534       7.028       5.989       4.403       2.372      2.1123E-03
   7    9.999       9.746       9.404       8.882       8.134       7.285       6.072       4.427       2.378      2.1178E-03
   8   10.000       9.758       9.443       8.980       8.306       7.384       6.112       4.440       2.381      2.1212E-03
   9   10.000       9.763       9.457       9.011       8.354       7.416       6.126       4.445       2.383      2.1228E-03
  10   10.000       9.765       9.462       9.020       8.365       7.424       6.131       4.447       2.383      2.1232E-03
1
              HEAD IN LAYER   2 AT END OF TIME STEP  25 IN STRESS PERIOD    3
  ---------------------------------------------------------------------------

            1           2           3           4           5           6           7           8           9          10
 ........................................................................................................................
   1   10.000       9.758       9.447       8.996       8.333       7.394       6.106       4.428       2.371      4.9652E-03
   2   10.000       9.753       9.433       8.964       8.286       7.363       6.092       4.423       2.369      4.9621E-03
   3    9.999       9.740       9.391       8.862       8.108       7.260       6.050       4.409       2.366      4.9544E-03
   4    9.999       9.717       9.306       8.601       7.499       6.995       5.963       4.385       2.360      4.9419E-03
   5    9.999       9.697       9.211       8.164       5.196       6.543       5.864       4.363       2.355      4.9324E-03
   6    9.999       9.717       9.306       8.602       7.499       6.995       5.963       4.385       2.360      4.9419E-03
   7    9.999       9.740       9.392       8.862       8.108       7.260       6.050       4.409       2.366      4.9544E-03
   8   10.000       9.754       9.433       8.965       8.287       7.364       6.092       4.423       2.370      4.9622E-03
   9   10.000       9.759       9.449       8.999       8.337       7.398       6.108       4.429       2.371      4.9658E-03
  10   10.000       9.761       9.454       9.008       8.350       7.407       6.113       4.431       2.372      4.9670E-03
1
              HEAD IN LAYER   3 AT END OF TIME STEP  25 IN STRESS PERIOD    3
  ---------------------------------------------------------------------------

            1           2           3           4           5           6           7           8           9          10
 ........................................................................................................................
   1   10.000       9.755       9.441       8.986       8.320       7.379       6.090       4.412       2.359      5.5583E-03
   2   10.000       9.750       9.426       8.953       8.270       7.346       6.074       4.407       2.357      5.5546E-03
   3    9.999       9.736       9.382       8.846       8.087       7.238       6.031       4.392       2.353      5.5454E-03
   4    9.999       9.712       9.294       8.579       7.474       6.967       5.940       4.367       2.347      5.5306E-03
   5    9.999       9.691       9.196       8.142       5.498       6.517       5.839       4.344       2.342      5.5196E-03
   6    9.999       9.712       9.294       8.579       7.474       6.967       5.941       4.367       2.347      5.5306E-03
   7    9.999       9.736       9.382       8.846       8.087       7.239       6.031       4.392       2.353      5.5454E-03
   8   10.000       9.750       9.426       8.954       8.272       7.347       6.075       4.407       2.357      5.5548E-03
   9   10.000       9.756       9.443       8.989       8.324       7.382       6.092       4.413       2.359      5.5590E-03
  10   10.000       9.758       9.448       8.999       8.338       7.392       6.097       4.415       2.359      5.5605E-03
1
              HEAD IN LAYER   4 AT END OF TIME STEP  25 IN STRESS PERIOD    3
  ---------------------------------------------------------------------------

            1           2           3           4           5           6           7           8           9          10
 ........................................................................................................................
   1   10.000       9.753       9.437       8.979       8.311       7.368       6.079       4.402       2.350      5.6176E-03
   2    9.999       9.748       9.421       8.945       8.260       7.334       6.063       4.396       2.349      5.6136E-03
   3    9.999       9.733       9.376       8.836       8.073       7.224       6.018       4.381       2.345      5.6039E-03
   4    9.999       9.709       9.286       8.564       7.460       6.949       5.925       4.354       2.338      5.5883E-03
   5    9.999       9.687       9.187       8.129       5.689       6.503       5.823       4.331       2.333      5.5768E-03
   6    9.999       9.709       9.286       8.564       7.461       6.949       5.925       4.354       2.338      5.5883E-03
   7    9.999       9.734       9.376       8.836       8.073       7.224       6.018       4.381       2.345      5.6039E-03
   8    9.999       9.748       9.421       8.946       8.261       7.335       6.063       4.396       2.349      5.6139E-03
   9   10.000       9.754       9.439       8.983       8.316       7.372       6.081       4.403       2.351      5.6184E-03
  10   10.000       9.756       9.444       8.993       8.330       7.382       6.086       4.405       2.351      5.6199E-03
1
              HEAD IN LAYER   5 AT END OF TIME STEP  25 IN STRESS PERIOD    3
  ---------------------------------------------------------------------------

            1           2           3           4           5           6           7           8           9          10
 ........................................................................................................................
   1   10.000       9.752       9.434       8.976       8.307       7.363       6.073       4.397       2.346      5.6177E-03
   2    9.999       9.746       9.418       8.941       8.255       7.328       6.057       4.391       2.345      5.6136E-03
   3    9.999       9.732       9.373       8.830       8.066       7.217       6.011       4.375       2.340      5.6036E-03
   4    9.999       9.707       9.281       8.557       7.454       6.939       5.918       4.348       2.334      5.5877E-03
   5    9.999       9.685       9.182       8.124       5.782       6.496       5.814       4.325       2.329      5.5760E-03
   6    9.999       9.707       9.281       8.557       7.454       6.939       5.918       4.348       2.334      5.5877E-03
   7    9.999       9.732       9.373       8.831       8.066       7.217       6.011       4.375       2.340      5.6037E-03
   8    9.999       9.747       9.419       8.942       8.256       7.329       6.058       4.391       2.345      5.6138E-03
   9   10.000       9.753       9.437       8.980       8.312       7.367       6.075       4.397       2.347      5.6185E-03
  10   10.000       9.755       9.442       8.990       8.326       7.377       6.081       4.400       2.347      5.6201E-03

 HEAD WILL BE SAVED ON UNIT   51 AT END OF TIME STEP   25, STRESS PERIOD    3

 DRAWDOWN WILL BE SAVED ON UNIT   52 AT END OF TIME STEP   25, STRESS PERIOD    3
1
  VOLUMETRIC BUDGET FOR ENTIRE MODEL AT END OF TIME STEP   25, STRESS PERIOD   3
  ------------------------------------------------------------------------------

     CUMULATIVE VOLUMES      L**3       RATES FOR THIS TIME STEP      L**3/T
     ------------------                 ------------------------

           IN:                                      IN:
           ---                                      ---
             STORAGE =      358111.8438               STORAGE =        1534.3625
       CONSTANT HEAD =           0.0000         CONSTANT HEAD =           0.0000
               WELLS =           0.0000                 WELLS =           0.0000
     HEAD DEP BOUNDS =        5429.1245       HEAD DEP BOUNDS =         157.0102

            TOTAL IN =      363540.9688              TOTAL IN =        1691.3727

          OUT:                                     OUT:
          ----                                     ----
             STORAGE =           0.0000               STORAGE =           0.0000
       CONSTANT HEAD =           0.0000         CONSTANT HEAD =           0.0000
               WELLS =       12500.0000                 WELLS =         500.0000
     HEAD DEP BOUNDS =      351042.0625       HEAD DEP BOUNDS =        1191.3594

           TOTAL OUT =      363542.0625             TOTAL OUT =        1691.3594

            IN - OUT =          -1.0938              IN - OUT =       1.3306E-02

 PERCENT DISCREPANCY =          -0.00     PERCENT DISCREPANCY =           0.00






         TIME SUMMARY AT END OF TIME STEP   25 IN STRESS PERIOD    3
                    SECONDS     MINUTES      HOURS       DAYS        YEARS
                    -----------------------------------------------------------
   TIME STEP LENGTH  86400.      1440.0      24.000      1.0000     2.73785E-03
 STRESS PERIOD TIME 2.16000E+06  36000.      600.00      25.000     6.84463E-02
         TOTAL TIME 1.08864E+07 1.81440E+05  3024.0      126.00     0.34497    
1
 
 SOLVING FOR HEAD 

 OUTPUT CONTROL FOR STRESS PERIOD    3   TIME STEP   26
    SAVE HEAD FOR ALL LAYERS
    SAVE DRAWDOWN FOR ALL LAYERS
    SAVE BUDGET
    PRINT HEAD FOR ALL LAYERS
    PRINT BUDGET
 UBDSV1 SAVING "         STORAGE" ON UNIT  53 AT TIME STEP 26, STRESS PERIOD   3
 UBDSV2 SAVING "   CONSTANT HEAD" ON UNIT  53 AT TIME STEP 26, STRESS PERIOD   3
 UBDSV1 SAVING "FLOW RIGHT FACE " ON UNIT  53 AT TIME STEP 26, STRESS PERIOD   3
 UBDSV1 SAVING "FLOW FRONT FACE " ON UNIT  53 AT TIME STEP 26, STRESS PERIOD   3
 UBDSV1 SAVING "FLOW LOWER FACE " ON UNIT  53 AT TIME STEP 26, STRESS PERIOD   3
1
              HEAD IN LAYER   1 AT END OF TIME STEP  26 IN STRESS PERIOD    3
  ---------------------------------------------------------------------------

            1           2           3           4           5           6           7           8           9          10
 ........................................................................................................................
   1   10.000       9.758       9.447       8.995       8.332       7.393       6.105       4.428       2.373      2.1132E-03
   2   10.000       9.753       9.432       8.963       8.285       7.362       6.091       4.423       2.371      2.1116E-03
   3    9.999       9.740       9.391       8.861       8.106       7.258       6.049       4.409       2.367      2.1080E-03
   4    9.999       9.717       9.306       8.600       7.493       6.991       5.961       4.384       2.361      2.1019E-03
   5    9.999       9.697       9.210       8.160       4.802       6.534       5.861       4.362       2.357      2.0975E-03
   6    9.999       9.717       9.306       8.600       7.493       6.991       5.961       4.384       2.361      2.1019E-03
   7    9.999       9.740       9.391       8.861       8.106       7.258       6.049       4.409       2.367      2.1080E-03
   8   10.000       9.753       9.433       8.964       8.286       7.362       6.091       4.423       2.371      2.1117E-03
   9   10.000       9.759       9.449       8.998       8.337       7.397       6.107       4.429       2.373      2.1135E-03
  10   10.000       9.761       9.453       9.008       8.349       7.406       6.112       4.431       2.374      2.1140E-03
1
              HEAD IN LAYER   2 AT END OF TIME STEP  26 IN STRESS PERIOD    3
  ---------------------------------------------------------------------------

            1           2           3           4           5           6           7           8           9          10
 ........................................................................................................................
   1   10.000       9.754       9.438       8.982       8.316       7.375       6.087       4.412       2.361      4.9452E-03
   2    9.999       9.749       9.423       8.948       8.266       7.341       6.071       4.406       2.360      4.9416E-03
   3    9.999       9.735       9.379       8.841       8.080       7.232       6.027       4.392       2.356      4.9331E-03
   4    9.999       9.710       9.289       8.572       7.458       6.959       5.936       4.365       2.349      4.9195E-03
   5    9.999       9.689       9.191       8.127       5.142       6.500       5.833       4.342       2.345      4.9094E-03
   6    9.999       9.710       9.289       8.572       7.458       6.959       5.936       4.365       2.349      4.9195E-03
   7    9.999       9.735       9.379       8.841       8.080       7.233       6.027       4.392       2.356      4.9332E-03
   8    9.999       9.749       9.423       8.949       8.267       7.342       6.072       4.407       2.360      4.9418E-03
   9   10.000       9.755       9.441       8.986       8.320       7.378       6.089       4.413       2.362      4.9458E-03
  10   10.000       9.757       9.446       8.996       8.334       7.388       6.094       4.415       2.362      4.9472E-03
1
              HEAD IN LAYER   3 AT END OF TIME STEP  26 IN STRESS PERIOD    3
  ---------------------------------------------------------------------------

            1           2           3           4           5           6           7           8           9          10
 ........................................................................................................................
   1   10.000       9.751       9.432       8.972       8.302       7.359       6.070       4.396       2.349      5.5362E-03
   2    9.999       9.745       9.415       8.937       8.250       7.324       6.054       4.390       2.347      5.5319E-03
   3    9.999       9.730       9.369       8.825       8.059       7.211       6.007       4.375       2.343      5.5218E-03
   4    9.999       9.705       9.277       8.549       7.434       6.931       5.913       4.347       2.336      5.5057E-03
   5    9.999       9.683       9.177       8.106       5.446       6.475       5.808       4.323       2.331      5.4940E-03
   6    9.999       9.705       9.277       8.549       7.435       6.931       5.913       4.347       2.336      5.5057E-03
   7    9.999       9.730       9.369       8.825       8.060       7.211       6.008       4.375       2.343      5.5218E-03
   8    9.999       9.745       9.416       8.938       8.251       7.325       6.055       4.391       2.347      5.5322E-03
   9   10.000       9.752       9.434       8.976       8.307       7.363       6.073       4.397       2.350      5.5369E-03
  10   10.000       9.754       9.440       8.987       8.322       7.374       6.078       4.400       2.350      5.5386E-03
1
              HEAD IN LAYER   4 AT END OF TIME STEP  26 IN STRESS PERIOD    3
  ---------------------------------------------------------------------------

            1           2           3           4           5           6           7           8           9          10
 ........................................................................................................................
   1    9.999       9.749       9.428       8.965       8.293       7.349       6.059       4.386       2.341      5.5953E-03
   2    9.999       9.743       9.411       8.929       8.240       7.312       6.042       4.380       2.339      5.5909E-03
   3    9.999       9.728       9.363       8.814       8.045       7.197       5.994       4.363       2.335      5.5801E-03
   4    9.999       9.701       9.268       8.535       7.421       6.913       5.897       4.335       2.328      5.5632E-03
   5    9.999       9.679       9.167       8.094       5.638       6.460       5.792       4.311       2.322      5.5510E-03
   6    9.999       9.701       9.268       8.535       7.421       6.913       5.898       4.335       2.328      5.5632E-03
   7    9.999       9.728       9.363       8.815       8.046       7.197       5.994       4.363       2.335      5.5802E-03
   8    9.999       9.743       9.411       8.930       8.241       7.313       6.043       4.380       2.339      5.5911E-03
   9   10.000       9.750       9.430       8.970       8.299       7.353       6.062       4.387       2.341      5.5962E-03
  10   10.000       9.752       9.436       8.981       8.314       7.364       6.068       4.389       2.342      5.5980E-03
1
              HEAD IN LAYER   5 AT END OF TIME STEP  26 IN STRESS PERIOD    3
  ---------------------------------------------------------------------------

            1           2           3           4           5           6           7           8           9          10
 ........................................................................................................................
   1    9.999       9.748       9.425       8.962       8.289       7.343       6.054       4.381       2.337      5.5955E-03
   2    9.999       9.742       9.408       8.925       8.235       7.307       6.037       4.374       2.335      5.5909E-03
   3    9.999       9.726       9.360       8.809       8.039       7.190       5.988       4.358       2.330      5.5799E-03
   4    9.999       9.699       9.264       8.528       7.415       6.904       5.890       4.329       2.323      5.5626E-03
   5    9.999       9.677       9.162       8.088       5.732       6.454       5.784       4.305       2.318      5.5502E-03
   6    9.999       9.699       9.264       8.528       7.415       6.904       5.890       4.329       2.323      5.5627E-03
   7    9.999       9.726       9.360       8.809       8.039       7.190       5.988       4.358       2.331      5.5799E-03
   8    9.999       9.742       9.409       8.926       8.236       7.308       6.037       4.375       2.335      5.5911E-03
   9    9.999       9.749       9.428       8.966       8.294       7.348       6.056       4.382       2.337      5.5963E-03
  10   10.000       9.751       9.434       8.978       8.310       7.359       6.062       4.384       2.338      5.5982E-03

 HEAD WILL BE SAVED ON UNIT   51 AT END OF TIME STEP   26, STRESS PERIOD    3

 DRAWDOWN WILL BE SAVED ON UNIT   52 AT END OF TIME STEP   26, STRESS PERIOD    3
1
  VOLUMETRIC BUDGET FOR ENTIRE MODEL AT END OF TIME STEP   26, STRESS PERIOD   3
  ------------------------------------------------------------------------------

     CUMULATIVE VOLUMES      L**3       RATES FOR THIS TIME STEP      L**3/T
     ------------------                 ------------------------

           IN:                                      IN:
           ---                                      ---
             STORAGE =      359637.7500               STORAGE =        1525.9076
       CONSTANT HEAD =           0.0000         CONSTANT HEAD =           0.0000
               WELLS =           0.0000                 WELLS =           0.0000
     HEAD DEP BOUNDS =        5589.5420       HEAD DEP BOUNDS =         160.4174

            TOTAL IN =      365227.2812              TOTAL IN =        1686.3251

          OUT:                                     OUT:
          ----                                     ----
             STORAGE =           0.0000               STORAGE =           0.0000
       CONSTANT HEAD =           0.0000         CONSTANT HEAD =           0.0000
               WELLS =       13000.0000                 WELLS =         500.0000
     HEAD DEP BOUNDS =      352228.3438       HEAD DEP BOUNDS =        1186.2935

           TOTAL OUT =      365228.3438             TOTAL OUT =        1686.2935

            IN - OUT =          -1.0625              IN - OUT =       3.1616E-02

 PERCENT DISCREPANCY =          -0.00     PERCENT DISCREPANCY =           0.00






         TIME SUMMARY AT END OF TIME STEP   26 IN STRESS PERIOD    3
                    SECONDS     MINUTES      HOURS       DAYS        YEARS
                    -----------------------------------------------------------
   TIME STEP LENGTH  86400.      1440.0      24.000      1.0000     2.73785E-03
 STRESS PERIOD TIME 2.24640E+06  37440.      624.00      26.000     7.11841E-02
         TOTAL TIME 1.09728E+07 1.82880E+05  3048.0      127.00     0.34771    
1
 
 SOLVING FOR HEAD 

 OUTPUT CONTROL FOR STRESS PERIOD    3   TIME STEP   27
    SAVE HEAD FOR ALL LAYERS
    SAVE DRAWDOWN FOR ALL LAYERS
    SAVE BUDGET
    PRINT HEAD FOR ALL LAYERS
    PRINT BUDGET
 UBDSV1 SAVING "         STORAGE" ON UNIT  53 AT TIME STEP 27, STRESS PERIOD   3
 UBDSV2 SAVING "   CONSTANT HEAD" ON UNIT  53 AT TIME STEP 27, STRESS PERIOD   3
 UBDSV1 SAVING "FLOW RIGHT FACE " ON UNIT  53 AT TIME STEP 27, STRESS PERIOD   3
 UBDSV1 SAVING "FLOW FRONT FACE " ON UNIT  53 AT TIME STEP 27, STRESS PERIOD   3
 UBDSV1 SAVING "FLOW LOWER FACE " ON UNIT  53 AT TIME STEP 27, STRESS PERIOD   3
1
              HEAD IN LAYER   1 AT END OF TIME STEP  27 IN STRESS PERIOD    3
  ---------------------------------------------------------------------------

            1           2           3           4           5           6           7           8           9          10
 ........................................................................................................................
   1   10.000       9.754       9.438       8.981       8.315       7.374       6.086       4.412       2.363      2.1040E-03
   2   10.000       9.748       9.422       8.948       8.264       7.340       6.070       4.406       2.362      2.1022E-03
   3    9.999       9.734       9.378       8.839       8.078       7.230       6.025       4.391       2.357      2.0981E-03
   4    9.999       9.710       9.288       8.570       7.453       6.955       5.933       4.364       2.351      2.0916E-03
   5    9.999       9.689       9.191       8.124       4.748       6.491       5.830       4.341       2.346      2.0867E-03
   6    9.999       9.710       9.288       8.570       7.453       6.955       5.933       4.364       2.351      2.0916E-03
   7    9.999       9.734       9.378       8.840       8.079       7.230       6.026       4.391       2.357      2.0981E-03
   8   10.000       9.749       9.423       8.949       8.265       7.341       6.071       4.406       2.362      2.1023E-03
   9   10.000       9.755       9.440       8.985       8.320       7.377       6.088       4.413       2.364      2.1042E-03
  10   10.000       9.757       9.445       8.995       8.333       7.388       6.094       4.415       2.364      2.1050E-03
1
              HEAD IN LAYER   2 AT END OF TIME STEP  27 IN STRESS PERIOD    3
  ---------------------------------------------------------------------------

            1           2           3           4           5           6           7           8           9          10
 ........................................................................................................................
   1   10.000       9.750       9.429       8.968       8.298       7.355       6.068       4.396       2.352      4.9253E-03
   2    9.999       9.744       9.413       8.933       8.245       7.319       6.051       4.390       2.350      4.9214E-03
   3    9.999       9.729       9.366       8.819       8.053       7.205       6.004       4.374       2.346      4.9119E-03
   4    9.999       9.703       9.272       8.542       7.419       6.923       5.908       4.346       2.339      4.8972E-03
   5    9.999       9.681       9.172       8.092       5.089       6.457       5.803       4.322       2.334      4.8864E-03
   6    9.999       9.703       9.272       8.542       7.419       6.923       5.908       4.346       2.339      4.8972E-03
   7    9.999       9.729       9.366       8.820       8.053       7.205       6.004       4.374       2.346      4.9120E-03
   8    9.999       9.744       9.413       8.934       8.246       7.320       6.052       4.390       2.350      4.9216E-03
   9   10.000       9.751       9.432       8.973       8.303       7.359       6.070       4.397       2.352      4.9260E-03
  10   10.000       9.753       9.438       8.984       8.318       7.370       6.076       4.399       2.353      4.9276E-03
1
              HEAD IN LAYER   3 AT END OF TIME STEP  27 IN STRESS PERIOD    3
  ---------------------------------------------------------------------------

            1           2           3           4           5           6           7           8           9          10
 ........................................................................................................................
   1    9.999       9.746       9.423       8.958       8.285       7.339       6.051       4.381       2.340      5.5142E-03
   2    9.999       9.740       9.405       8.921       8.230       7.302       6.034       4.374       2.338      5.5095E-03
   3    9.999       9.724       9.356       8.804       8.032       7.184       5.984       4.357       2.333      5.4983E-03
   4    9.999       9.697       9.260       8.520       7.395       6.895       5.885       4.328       2.326      5.4810E-03
   5    9.999       9.675       9.157       8.071       5.395       6.433       5.778       4.303       2.320      5.4685E-03
   6    9.999       9.697       9.260       8.520       7.396       6.895       5.885       4.328       2.326      5.4810E-03
   7    9.999       9.724       9.356       8.804       8.032       7.184       5.984       4.357       2.333      5.4984E-03
   8    9.999       9.741       9.406       8.922       8.231       7.303       6.034       4.374       2.338      5.5098E-03
   9    9.999       9.748       9.426       8.963       8.290       7.344       6.054       4.382       2.340      5.5151E-03
  10   10.000       9.750       9.432       8.975       8.306       7.356       6.060       4.384       2.341      5.5170E-03
1
              HEAD IN LAYER   4 AT END OF TIME STEP  27 IN STRESS PERIOD    3
  ---------------------------------------------------------------------------

            1           2           3           4           5           6           7           8           9          10
 ........................................................................................................................
   1    9.999       9.744       9.419       8.952       8.276       7.329       6.040       4.370       2.332      5.5732E-03
   2    9.999       9.738       9.400       8.913       8.219       7.290       6.022       4.363       2.330      5.5683E-03
   3    9.999       9.722       9.350       8.793       8.018       7.169       5.971       4.346       2.325      5.5565E-03
   4    9.999       9.694       9.251       8.506       7.382       6.877       5.870       4.316       2.317      5.5383E-03
   5    9.999       9.671       9.147       8.059       5.589       6.419       5.762       4.290       2.312      5.5253E-03
   6    9.999       9.694       9.251       8.506       7.382       6.877       5.870       4.316       2.317      5.5383E-03
   7    9.999       9.722       9.350       8.793       8.018       7.170       5.971       4.346       2.325      5.5566E-03
   8    9.999       9.738       9.401       8.914       8.221       7.292       6.023       4.364       2.330      5.5686E-03
   9    9.999       9.746       9.421       8.956       8.282       7.334       6.043       4.371       2.332      5.5742E-03
  10    9.999       9.748       9.428       8.969       8.298       7.346       6.049       4.374       2.333      5.5762E-03
1
              HEAD IN LAYER   5 AT END OF TIME STEP  27 IN STRESS PERIOD    3
  ---------------------------------------------------------------------------

            1           2           3           4           5           6           7           8           9          10
 ........................................................................................................................
   1    9.999       9.743       9.416       8.948       8.271       7.324       6.035       4.365       2.328      5.5734E-03
   2    9.999       9.737       9.398       8.909       8.214       7.285       6.016       4.358       2.326      5.5683E-03
   3    9.999       9.720       9.347       8.788       8.011       7.162       5.964       4.340       2.321      5.5563E-03
   4    9.999       9.692       9.247       8.498       7.377       6.868       5.862       4.310       2.313      5.5377E-03
   5    9.999       9.669       9.142       8.054       5.683       6.413       5.754       4.284       2.307      5.5245E-03
   6    9.999       9.692       9.247       8.498       7.377       6.868       5.862       4.310       2.313      5.5377E-03
   7    9.999       9.720       9.347       8.788       8.012       7.163       5.965       4.340       2.321      5.5563E-03
   8    9.999       9.737       9.399       8.910       8.216       7.286       6.017       4.358       2.326      5.5686E-03
   9    9.999       9.744       9.419       8.953       8.277       7.329       6.038       4.366       2.328      5.5744E-03
  10    9.999       9.747       9.426       8.966       8.294       7.341       6.044       4.369       2.329      5.5765E-03

 HEAD WILL BE SAVED ON UNIT   51 AT END OF TIME STEP   27, STRESS PERIOD    3

 DRAWDOWN WILL BE SAVED ON UNIT   52 AT END OF TIME STEP   27, STRESS PERIOD    3
1
  VOLUMETRIC BUDGET FOR ENTIRE MODEL AT END OF TIME STEP   27, STRESS PERIOD   3
  ------------------------------------------------------------------------------

     CUMULATIVE VOLUMES      L**3       RATES FOR THIS TIME STEP      L**3/T
     ------------------                 ------------------------

           IN:                                      IN:
           ---                                      ---
             STORAGE =      361155.2188               STORAGE =        1517.4662
       CONSTANT HEAD =           0.0000         CONSTANT HEAD =           0.0000
               WELLS =           0.0000                 WELLS =           0.0000
     HEAD DEP BOUNDS =        5753.3931       HEAD DEP BOUNDS =         163.8509

            TOTAL IN =      366908.6250              TOTAL IN =        1681.3170

          OUT:                                     OUT:
          ----                                     ----
             STORAGE =           0.0000               STORAGE =           0.0000
       CONSTANT HEAD =           0.0000         CONSTANT HEAD =           0.0000
               WELLS =       13500.0000                 WELLS =         500.0000
     HEAD DEP BOUNDS =      353409.5938       HEAD DEP BOUNDS =        1181.2589

           TOTAL OUT =      366909.5938             TOTAL OUT =        1681.2589

            IN - OUT =          -0.9688              IN - OUT =       5.8105E-02

 PERCENT DISCREPANCY =          -0.00     PERCENT DISCREPANCY =           0.00






         TIME SUMMARY AT END OF TIME STEP   27 IN STRESS PERIOD    3
                    SECONDS     MINUTES      HOURS       DAYS        YEARS
                    -----------------------------------------------------------
   TIME STEP LENGTH  86400.      1440.0      24.000      1.0000     2.73785E-03
 STRESS PERIOD TIME 2.33280E+06  38880.      648.00      27.000     7.39220E-02
         TOTAL TIME 1.10592E+07 1.84320E+05  3072.0      128.00     0.35044    
1
 
 SOLVING FOR HEAD 

 OUTPUT CONTROL FOR STRESS PERIOD    3   TIME STEP   28
    SAVE HEAD FOR ALL LAYERS
    SAVE DRAWDOWN FOR ALL LAYERS
    SAVE BUDGET
    PRINT HEAD FOR ALL LAYERS
    PRINT BUDGET
 UBDSV1 SAVING "         STORAGE" ON UNIT  53 AT TIME STEP 28, STRESS PERIOD   3
 UBDSV2 SAVING "   CONSTANT HEAD" ON UNIT  53 AT TIME STEP 28, STRESS PERIOD   3
 UBDSV1 SAVING "FLOW RIGHT FACE " ON UNIT  53 AT TIME STEP 28, STRESS PERIOD   3
 UBDSV1 SAVING "FLOW FRONT FACE " ON UNIT  53 AT TIME STEP 28, STRESS PERIOD   3
 UBDSV1 SAVING "FLOW LOWER FACE " ON UNIT  53 AT TIME STEP 28, STRESS PERIOD   3
1
              HEAD IN LAYER   1 AT END OF TIME STEP  28 IN STRESS PERIOD    3
  ---------------------------------------------------------------------------

            1           2           3           4           5           6           7           8           9          10
 ........................................................................................................................
   1   10.000       9.749       9.429       8.968       8.297       7.354       6.067       4.396       2.354      2.0948E-03
   2    9.999       9.744       9.412       8.932       8.244       7.318       6.050       4.390       2.352      2.0929E-03
   3    9.999       9.728       9.365       8.818       8.051       7.203       6.002       4.373       2.347      2.0884E-03
   4    9.999       9.702       9.271       8.541       7.413       6.919       5.905       4.345       2.340      2.0814E-03
   5    9.999       9.680       9.171       8.089       4.697       6.448       5.799       4.321       2.335      2.0763E-03
   6    9.999       9.702       9.271       8.541       7.413       6.919       5.905       4.345       2.340      2.0814E-03
   7    9.999       9.728       9.365       8.818       8.051       7.203       6.002       4.373       2.347      2.0884E-03
   8    9.999       9.744       9.413       8.933       8.245       7.319       6.051       4.390       2.352      2.0930E-03
   9   10.000       9.750       9.431       8.972       8.302       7.358       6.069       4.397       2.354      2.0951E-03
  10   10.000       9.753       9.437       8.983       8.318       7.369       6.075       4.400       2.355      2.0959E-03
1
              HEAD IN LAYER   2 AT END OF TIME STEP  28 IN STRESS PERIOD    3
  ---------------------------------------------------------------------------

            1           2           3           4           5           6           7           8           9          10
 ........................................................................................................................
   1    9.999       9.745       9.420       8.955       8.281       7.336       6.049       4.380       2.343      4.9056E-03
   2    9.999       9.739       9.402       8.917       8.225       7.297       6.031       4.374       2.341      4.9012E-03
   3    9.999       9.723       9.353       8.798       8.025       7.178       5.980       4.356       2.336      4.8909E-03
   4    9.999       9.695       9.255       8.513       7.380       6.887       5.880       4.327       2.328      4.8750E-03
   5    9.999       9.672       9.152       8.057       5.039       6.415       5.772       4.302       2.323      4.8636E-03
   6    9.999       9.695       9.255       8.513       7.380       6.887       5.880       4.327       2.328      4.8750E-03
   7    9.999       9.723       9.353       8.799       8.026       7.178       5.980       4.356       2.336      4.8910E-03
   8    9.999       9.739       9.403       8.918       8.226       7.299       6.031       4.374       2.341      4.9015E-03
   9    9.999       9.746       9.423       8.959       8.286       7.340       6.051       4.382       2.343      4.9064E-03
  10    9.999       9.749       9.430       8.971       8.302       7.352       6.058       4.384       2.344      4.9082E-03
1
              HEAD IN LAYER   3 AT END OF TIME STEP  28 IN STRESS PERIOD    3
  ---------------------------------------------------------------------------

            1           2           3           4           5           6           7           8           9          10
 ........................................................................................................................
   1    9.999       9.742       9.414       8.945       8.267       7.320       6.032       4.365       2.331      5.4924E-03
   2    9.999       9.735       9.395       8.905       8.209       7.280       6.013       4.358       2.328      5.4872E-03
   3    9.999       9.718       9.343       8.782       8.004       7.156       5.961       4.339       2.323      5.4750E-03
   4    9.999       9.690       9.242       8.491       7.357       6.860       5.857       4.308       2.315      5.4563E-03
   5    9.999       9.666       9.137       8.036       5.346       6.392       5.748       4.283       2.310      5.4431E-03
   6    9.999       9.690       9.243       8.491       7.357       6.860       5.858       4.308       2.315      5.4563E-03
   7    9.999       9.718       9.343       8.783       8.005       7.157       5.961       4.340       2.323      5.4751E-03
   8    9.999       9.736       9.396       8.906       8.211       7.281       6.014       4.358       2.329      5.4875E-03
   9    9.999       9.743       9.417       8.950       8.273       7.325       6.035       4.366       2.331      5.4934E-03
  10    9.999       9.746       9.424       8.962       8.290       7.338       6.042       4.369       2.332      5.4955E-03
1
              HEAD IN LAYER   4 AT END OF TIME STEP  28 IN STRESS PERIOD    3
  ---------------------------------------------------------------------------

            1           2           3           4           5           6           7           8           9          10
 ........................................................................................................................
   1    9.999       9.740       9.410       8.938       8.258       7.310       6.021       4.355       2.323      5.5513E-03
   2    9.999       9.733       9.390       8.897       8.199       7.269       6.002       4.347       2.320      5.5458E-03
   3    9.999       9.715       9.337       8.772       7.991       7.142       5.948       4.328       2.315      5.5330E-03
   4    9.999       9.686       9.234       8.477       7.344       6.842       5.842       4.296       2.307      5.5134E-03
   5    9.999       9.662       9.128       8.025       5.542       6.378       5.732       4.270       2.301      5.4997E-03
   6    9.999       9.686       9.234       8.477       7.345       6.842       5.842       4.296       2.307      5.5134E-03
   7    9.999       9.716       9.337       8.772       7.991       7.143       5.948       4.328       2.315      5.5331E-03
   8    9.999       9.733       9.391       8.898       8.200       7.270       6.003       4.347       2.321      5.5462E-03
   9    9.999       9.741       9.413       8.943       8.265       7.315       6.024       4.356       2.323      5.5524E-03
  10    9.999       9.744       9.420       8.956       8.282       7.328       6.031       4.359       2.324      5.5547E-03
1
              HEAD IN LAYER   5 AT END OF TIME STEP  28 IN STRESS PERIOD    3
  ---------------------------------------------------------------------------

            1           2           3           4           5           6           7           8           9          10
 ........................................................................................................................
   1    9.999       9.739       9.407       8.934       8.254       7.304       6.016       4.349       2.319      5.5515E-03
   2    9.999       9.732       9.387       8.893       8.194       7.263       5.996       4.342       2.316      5.5459E-03
   3    9.999       9.714       9.333       8.767       7.984       7.135       5.941       4.323       2.311      5.5328E-03
   4    9.999       9.684       9.230       8.470       7.339       6.833       5.835       4.290       2.302      5.5129E-03
   5    9.999       9.660       9.123       8.020       5.636       6.372       5.724       4.264       2.297      5.4989E-03
   6    9.999       9.684       9.230       8.470       7.339       6.833       5.835       4.290       2.302      5.5129E-03
   7    9.999       9.714       9.334       8.767       7.984       7.136       5.941       4.323       2.311      5.5329E-03
   8    9.999       9.732       9.388       8.895       8.195       7.264       5.997       4.342       2.316      5.5463E-03
   9    9.999       9.740       9.411       8.940       8.260       7.310       6.019       4.351       2.319      5.5527E-03
  10    9.999       9.743       9.418       8.953       8.278       7.323       6.026       4.354       2.320      5.5550E-03

 HEAD WILL BE SAVED ON UNIT   51 AT END OF TIME STEP   28, STRESS PERIOD    3

 DRAWDOWN WILL BE SAVED ON UNIT   52 AT END OF TIME STEP   28, STRESS PERIOD    3
1
  VOLUMETRIC BUDGET FOR ENTIRE MODEL AT END OF TIME STEP   28, STRESS PERIOD   3
  ------------------------------------------------------------------------------

     CUMULATIVE VOLUMES      L**3       RATES FOR THIS TIME STEP      L**3/T
     ------------------                 ------------------------

           IN:                                      IN:
           ---                                      ---
             STORAGE =      362664.2188               STORAGE =        1509.0027
       CONSTANT HEAD =           0.0000         CONSTANT HEAD =           0.0000
               WELLS =           0.0000                 WELLS =           0.0000
     HEAD DEP BOUNDS =        5920.6821       HEAD DEP BOUNDS =         167.2890

            TOTAL IN =      368584.9062              TOTAL IN =        1676.2916

          OUT:                                     OUT:
          ----                                     ----
             STORAGE =           0.0000               STORAGE =           0.0000
       CONSTANT HEAD =           0.0000         CONSTANT HEAD =           0.0000
               WELLS =       14000.0000                 WELLS =         500.0000
     HEAD DEP BOUNDS =      354585.8438       HEAD DEP BOUNDS =        1176.2627

           TOTAL OUT =      368585.8438             TOTAL OUT =        1676.2627

            IN - OUT =          -0.9375              IN - OUT =       2.8931E-02

 PERCENT DISCREPANCY =          -0.00     PERCENT DISCREPANCY =           0.00






         TIME SUMMARY AT END OF TIME STEP   28 IN STRESS PERIOD    3
                    SECONDS     MINUTES      HOURS       DAYS        YEARS
                    -----------------------------------------------------------
   TIME STEP LENGTH  86400.      1440.0      24.000      1.0000     2.73785E-03
 STRESS PERIOD TIME 2.41920E+06  40320.      672.00      28.000     7.66598E-02
         TOTAL TIME 1.11456E+07 1.85760E+05  3096.0      129.00     0.35318    
1
 
 SOLVING FOR HEAD 

 OUTPUT CONTROL FOR STRESS PERIOD    3   TIME STEP   29
    SAVE HEAD FOR ALL LAYERS
    SAVE DRAWDOWN FOR ALL LAYERS
    SAVE BUDGET
    PRINT HEAD FOR ALL LAYERS
    PRINT BUDGET
 UBDSV1 SAVING "         STORAGE" ON UNIT  53 AT TIME STEP 29, STRESS PERIOD   3
 UBDSV2 SAVING "   CONSTANT HEAD" ON UNIT  53 AT TIME STEP 29, STRESS PERIOD   3
 UBDSV1 SAVING "FLOW RIGHT FACE " ON UNIT  53 AT TIME STEP 29, STRESS PERIOD   3
 UBDSV1 SAVING "FLOW FRONT FACE " ON UNIT  53 AT TIME STEP 29, STRESS PERIOD   3
 UBDSV1 SAVING "FLOW LOWER FACE " ON UNIT  53 AT TIME STEP 29, STRESS PERIOD   3
1
              HEAD IN LAYER   1 AT END OF TIME STEP  29 IN STRESS PERIOD    3
  ---------------------------------------------------------------------------

            1           2           3           4           5           6           7           8           9          10
 ........................................................................................................................
   1    9.999       9.745       9.420       8.954       8.280       7.335       6.048       4.380       2.344      2.0859E-03
   2    9.999       9.739       9.402       8.916       8.223       7.296       6.030       4.373       2.342      2.0839E-03
   3    9.999       9.722       9.352       8.797       8.023       7.176       5.979       4.356       2.337      2.0789E-03
   4    9.999       9.695       9.254       8.511       7.374       6.883       5.878       4.326       2.330      2.0713E-03
   5    9.999       9.672       9.151       8.054       4.647       6.407       5.769       4.300       2.324      2.0658E-03
   6    9.999       9.695       9.254       8.511       7.375       6.883       5.878       4.326       2.330      2.0713E-03
   7    9.999       9.723       9.352       8.797       8.024       7.176       5.979       4.356       2.337      2.0789E-03
   8    9.999       9.739       9.403       8.917       8.225       7.297       6.030       4.374       2.342      2.0840E-03
   9    9.999       9.746       9.423       8.959       8.285       7.339       6.051       4.382       2.345      2.0863E-03
  10   10.000       9.749       9.429       8.971       8.302       7.351       6.057       4.384       2.346      2.0871E-03
1
              HEAD IN LAYER   2 AT END OF TIME STEP  29 IN STRESS PERIOD    3
  ---------------------------------------------------------------------------

            1           2           3           4           5           6           7           8           9          10
 ........................................................................................................................
   1    9.999       9.741       9.411       8.941       8.263       7.316       6.030       4.365       2.333      4.8861E-03
   2    9.999       9.734       9.392       8.901       8.204       7.276       6.010       4.357       2.331      4.8813E-03
   3    9.999       9.717       9.339       8.777       7.998       7.151       5.957       4.339       2.326      4.8701E-03
   4    9.999       9.688       9.238       8.484       7.342       6.852       5.853       4.307       2.318      4.8529E-03
   5    9.999       9.664       9.132       8.023       4.990       6.375       5.742       4.281       2.312      4.8408E-03
   6    9.999       9.688       9.238       8.484       7.342       6.852       5.853       4.307       2.318      4.8529E-03
   7    9.999       9.717       9.340       8.777       7.998       7.151       5.957       4.339       2.326      4.8701E-03
   8    9.999       9.734       9.393       8.902       8.206       7.277       6.011       4.358       2.331      4.8816E-03
   9    9.999       9.742       9.414       8.946       8.269       7.321       6.033       4.366       2.334      4.8871E-03
  10    9.999       9.745       9.421       8.959       8.287       7.334       6.040       4.369       2.335      4.8890E-03
1
              HEAD IN LAYER   3 AT END OF TIME STEP  29 IN STRESS PERIOD    3
  ---------------------------------------------------------------------------

            1           2           3           4           5           6           7           8           9          10
 ........................................................................................................................
   1    9.999       9.738       9.405       8.931       8.249       7.300       6.013       4.349       2.321      5.4708E-03
   2    9.999       9.730       9.385       8.889       8.189       7.258       5.993       4.341       2.319      5.4651E-03
   3    9.999       9.712       9.330       8.761       7.977       7.129       5.937       4.322       2.313      5.4518E-03
   4    9.999       9.682       9.225       8.462       7.320       6.825       5.830       4.289       2.305      5.4318E-03
   5    9.999       9.658       9.118       8.003       5.299       6.351       5.718       4.262       2.299      5.4178E-03
   6    9.999       9.682       9.225       8.462       7.320       6.825       5.830       4.289       2.305      5.4318E-03
   7    9.999       9.712       9.330       8.762       7.978       7.130       5.938       4.322       2.313      5.4519E-03
   8    9.999       9.731       9.385       8.890       8.190       7.260       5.994       4.342       2.319      5.4655E-03
   9    9.999       9.739       9.408       8.936       8.256       7.306       6.017       4.351       2.322      5.4720E-03
  10    9.999       9.742       9.415       8.950       8.274       7.320       6.024       4.354       2.323      5.4743E-03
1
              HEAD IN LAYER   4 AT END OF TIME STEP  29 IN STRESS PERIOD    3
  ---------------------------------------------------------------------------

            1           2           3           4           5           6           7           8           9          10
 ........................................................................................................................
   1    9.999       9.735       9.400       8.924       8.240       7.290       6.003       4.339       2.314      5.5296E-03
   2    9.999       9.728       9.379       8.881       8.178       7.247       5.982       4.331       2.311      5.5236E-03
   3    9.999       9.709       9.323       8.751       7.964       7.115       5.924       4.311       2.305      5.5096E-03
   4    9.999       9.679       9.217       8.448       7.307       6.807       5.815       4.277       2.296      5.4886E-03
   5    9.999       9.654       9.108       7.991       5.495       6.338       5.702       4.250       2.290      5.4741E-03
   6    9.999       9.679       9.217       8.448       7.307       6.807       5.815       4.277       2.296      5.4887E-03
   7    9.999       9.709       9.324       8.751       7.964       7.116       5.925       4.311       2.305      5.5097E-03
   8    9.999       9.728       9.380       8.882       8.180       7.248       5.982       4.331       2.311      5.5240E-03
   9    9.999       9.737       9.404       8.930       8.248       7.296       6.006       4.341       2.314      5.5309E-03
  10    9.999       9.740       9.411       8.944       8.266       7.310       6.013       4.344       2.315      5.5334E-03
1
              HEAD IN LAYER   5 AT END OF TIME STEP  29 IN STRESS PERIOD    3
  ---------------------------------------------------------------------------

            1           2           3           4           5           6           7           8           9          10
 ........................................................................................................................
   1    9.999       9.734       9.398       8.921       8.236       7.285       5.997       4.334       2.310      5.5298E-03
   2    9.999       9.727       9.377       8.877       8.173       7.241       5.976       4.326       2.307      5.5237E-03
   3    9.999       9.708       9.320       8.745       7.957       7.108       5.918       4.305       2.301      5.5095E-03
   4    9.999       9.677       9.213       8.441       7.302       6.798       5.808       4.271       2.292      5.4881E-03
   5    9.999       9.652       9.104       7.987       5.590       6.332       5.694       4.244       2.286      5.4734E-03
   6    9.999       9.677       9.213       8.441       7.302       6.799       5.808       4.271       2.292      5.4881E-03
   7    9.999       9.708       9.320       8.746       7.957       7.109       5.918       4.305       2.301      5.5096E-03
   8    9.999       9.727       9.378       8.879       8.175       7.243       5.977       4.326       2.307      5.5241E-03
   9    9.999       9.736       9.402       8.927       8.243       7.291       6.001       4.336       2.310      5.5312E-03
  10    9.999       9.739       9.409       8.941       8.262       7.305       6.008       4.339       2.311      5.5337E-03

 HEAD WILL BE SAVED ON UNIT   51 AT END OF TIME STEP   29, STRESS PERIOD    3

 DRAWDOWN WILL BE SAVED ON UNIT   52 AT END OF TIME STEP   29, STRESS PERIOD    3
1
  VOLUMETRIC BUDGET FOR ENTIRE MODEL AT END OF TIME STEP   29, STRESS PERIOD   3
  ------------------------------------------------------------------------------

     CUMULATIVE VOLUMES      L**3       RATES FOR THIS TIME STEP      L**3/T
     ------------------                 ------------------------

           IN:                                      IN:
           ---                                      ---
             STORAGE =      364164.8125               STORAGE =        1500.5961
       CONSTANT HEAD =           0.0000         CONSTANT HEAD =           0.0000
               WELLS =           0.0000                 WELLS =           0.0000
     HEAD DEP BOUNDS =        6091.4531       HEAD DEP BOUNDS =         170.7711

            TOTAL IN =      370256.2500              TOTAL IN =        1671.3672

          OUT:                                     OUT:
          ----                                     ----
             STORAGE =           0.0000               STORAGE =           0.0000
       CONSTANT HEAD =           0.0000         CONSTANT HEAD =           0.0000
               WELLS =       14500.0000                 WELLS =         500.0000
     HEAD DEP BOUNDS =      355757.1562       HEAD DEP BOUNDS =        1171.3074

           TOTAL OUT =      370257.1562             TOTAL OUT =        1671.3074

            IN - OUT =          -0.9062              IN - OUT =       5.9814E-02

 PERCENT DISCREPANCY =          -0.00     PERCENT DISCREPANCY =           0.00






         TIME SUMMARY AT END OF TIME STEP   29 IN STRESS PERIOD    3
                    SECONDS     MINUTES      HOURS       DAYS        YEARS
                    -----------------------------------------------------------
   TIME STEP LENGTH  86400.      1440.0      24.000      1.0000     2.73785E-03
 STRESS PERIOD TIME 2.50560E+06  41760.      696.00      29.000     7.93977E-02
         TOTAL TIME 1.12320E+07 1.87200E+05  3120.0      130.00     0.35592    
1
 
 SOLVING FOR HEAD 

 OUTPUT CONTROL FOR STRESS PERIOD    3   TIME STEP   30
    SAVE HEAD FOR ALL LAYERS
    SAVE DRAWDOWN FOR ALL LAYERS
    SAVE BUDGET
    PRINT HEAD FOR ALL LAYERS
    PRINT BUDGET
 UBDSV1 SAVING "         STORAGE" ON UNIT  53 AT TIME STEP 30, STRESS PERIOD   3
 UBDSV2 SAVING "   CONSTANT HEAD" ON UNIT  53 AT TIME STEP 30, STRESS PERIOD   3
 UBDSV1 SAVING "FLOW RIGHT FACE " ON UNIT  53 AT TIME STEP 30, STRESS PERIOD   3
 UBDSV1 SAVING "FLOW FRONT FACE " ON UNIT  53 AT TIME STEP 30, STRESS PERIOD   3
 UBDSV1 SAVING "FLOW LOWER FACE " ON UNIT  53 AT TIME STEP 30, STRESS PERIOD   3
1
              HEAD IN LAYER   1 AT END OF TIME STEP  30 IN STRESS PERIOD    3
  ---------------------------------------------------------------------------

            1           2           3           4           5           6           7           8           9          10
 ........................................................................................................................
   1    9.999       9.741       9.411       8.940       8.262       7.315       6.029       4.365       2.335      2.0769E-03
   2    9.999       9.734       9.392       8.900       8.203       7.274       6.009       4.357       2.333      2.0746E-03
   3    9.999       9.716       9.339       8.776       7.996       7.148       5.955       4.338       2.327      2.0693E-03
   4    9.999       9.687       9.237       8.483       7.337       6.848       5.850       4.306       2.319      2.0611E-03
   5    9.999       9.664       9.132       8.020       4.599       6.366       5.738       4.280       2.313      2.0553E-03
   6    9.999       9.687       9.237       8.483       7.337       6.848       5.850       4.306       2.319      2.0611E-03
   7    9.999       9.716       9.339       8.776       7.996       7.149       5.956       4.338       2.327      2.0693E-03
   8    9.999       9.734       9.392       8.901       8.205       7.276       6.010       4.358       2.333      2.0748E-03
   9    9.999       9.742       9.414       8.946       8.268       7.320       6.032       4.366       2.336      2.0775E-03
  10    9.999       9.745       9.421       8.959       8.286       7.333       6.039       4.369       2.337      2.0783E-03
1
              HEAD IN LAYER   2 AT END OF TIME STEP  30 IN STRESS PERIOD    3
  ---------------------------------------------------------------------------

            1           2           3           4           5           6           7           8           9          10
 ........................................................................................................................
   1    9.999       9.736       9.402       8.927       8.245       7.297       6.011       4.349       2.324      4.8667E-03
   2    9.999       9.729       9.382       8.885       8.184       7.254       5.990       4.341       2.322      4.8615E-03
   3    9.999       9.711       9.326       8.756       7.971       7.124       5.934       4.321       2.316      4.8493E-03
   4    9.999       9.680       9.221       8.455       7.305       6.817       5.825       4.288       2.307      4.8309E-03
   5    9.999       9.656       9.113       7.989       4.943       6.335       5.712       4.261       2.301      4.8181E-03
   6    9.999       9.680       9.221       8.456       7.305       6.817       5.825       4.288       2.307      4.8309E-03
   7    9.999       9.711       9.326       8.756       7.971       7.124       5.934       4.321       2.316      4.8494E-03
   8    9.999       9.729       9.383       8.886       8.186       7.255       5.991       4.342       2.322      4.8618E-03
   9    9.999       9.738       9.406       8.933       8.252       7.302       6.014       4.351       2.325      4.8679E-03
  10    9.999       9.741       9.413       8.947       8.271       7.316       6.022       4.354       2.326      4.8700E-03
1
              HEAD IN LAYER   3 AT END OF TIME STEP  30 IN STRESS PERIOD    3
  ---------------------------------------------------------------------------

            1           2           3           4           5           6           7           8           9          10
 ........................................................................................................................
   1    9.999       9.733       9.396       8.917       8.232       7.281       5.995       4.334       2.312      5.4494E-03
   2    9.999       9.725       9.374       8.873       8.168       7.237       5.973       4.325       2.310      5.4432E-03
   3    9.999       9.706       9.316       8.740       7.950       7.102       5.914       4.304       2.304      5.4288E-03
   4    9.999       9.675       9.208       8.434       7.283       6.790       5.803       4.270       2.295      5.4073E-03
   5    9.999       9.649       9.099       7.970       5.253       6.312       5.688       4.242       2.288      5.3926E-03
   6    9.999       9.675       9.208       8.434       7.283       6.791       5.803       4.270       2.295      5.4074E-03
   7    9.999       9.706       9.317       8.740       7.951       7.103       5.914       4.305       2.304      5.4289E-03
   8    9.999       9.726       9.375       8.874       8.170       7.238       5.974       4.326       2.310      5.4436E-03
   9    9.999       9.735       9.399       8.923       8.239       7.287       5.998       4.336       2.313      5.4508E-03
  10    9.999       9.738       9.407       8.938       8.259       7.302       6.006       4.339       2.314      5.4534E-03
1
              HEAD IN LAYER   4 AT END OF TIME STEP  30 IN STRESS PERIOD    3
  ---------------------------------------------------------------------------

            1           2           3           4           5           6           7           8           9          10
 ........................................................................................................................
   1    9.999       9.731       9.391       8.910       8.223       7.271       5.984       4.324       2.305      5.5080E-03
   2    9.999       9.723       9.369       8.865       8.158       7.225       5.961       4.315       2.302      5.5015E-03
   3    9.999       9.703       9.310       8.730       7.937       7.088       5.901       4.293       2.295      5.4864E-03
   4    9.999       9.671       9.200       8.420       7.271       6.773       5.788       4.258       2.286      5.4640E-03
   5    9.999       9.645       9.089       7.959       5.450       6.299       5.672       4.230       2.280      5.4487E-03
   6    9.999       9.671       9.200       8.420       7.271       6.773       5.788       4.258       2.286      5.4640E-03
   7    9.999       9.703       9.310       8.730       7.937       7.089       5.902       4.293       2.296      5.4865E-03
   8    9.999       9.723       9.370       8.866       8.160       7.227       5.962       4.315       2.302      5.5019E-03
   9    9.999       9.733       9.395       8.916       8.231       7.277       5.987       4.325       2.305      5.5095E-03
  10    9.999       9.736       9.403       8.932       8.251       7.292       5.996       4.329       2.306      5.5123E-03
1
              HEAD IN LAYER   5 AT END OF TIME STEP  30 IN STRESS PERIOD    3
  ---------------------------------------------------------------------------

            1           2           3           4           5           6           7           8           9          10
 ........................................................................................................................
   1    9.999       9.730       9.389       8.907       8.218       7.265       5.978       4.319       2.301      5.5083E-03
   2    9.999       9.722       9.366       8.861       8.152       7.219       5.956       4.310       2.298      5.5016E-03
   3    9.999       9.702       9.307       8.724       7.930       7.081       5.895       4.288       2.291      5.4862E-03
   4    9.999       9.669       9.196       8.413       7.265       6.764       5.780       4.252       2.282      5.4635E-03
   5    9.999       9.643       9.084       7.954       5.546       6.293       5.664       4.224       2.275      5.4480E-03
   6    9.999       9.669       9.196       8.413       7.266       6.764       5.780       4.252       2.282      5.4635E-03
   7    9.999       9.702       9.307       8.725       7.931       7.082       5.895       4.288       2.291      5.4864E-03
   8    9.999       9.722       9.368       8.863       8.155       7.221       5.957       4.310       2.298      5.5021E-03
   9    9.999       9.732       9.393       8.913       8.226       7.272       5.982       4.320       2.301      5.5098E-03
  10    9.999       9.735       9.401       8.929       8.246       7.287       5.990       4.324       2.302      5.5127E-03

 HEAD WILL BE SAVED ON UNIT   51 AT END OF TIME STEP   30, STRESS PERIOD    3

 DRAWDOWN WILL BE SAVED ON UNIT   52 AT END OF TIME STEP   30, STRESS PERIOD    3
1
  VOLUMETRIC BUDGET FOR ENTIRE MODEL AT END OF TIME STEP   30, STRESS PERIOD   3
  ------------------------------------------------------------------------------

     CUMULATIVE VOLUMES      L**3       RATES FOR THIS TIME STEP      L**3/T
     ------------------                 ------------------------

           IN:                                      IN:
           ---                                      ---
             STORAGE =      365656.9688               STORAGE =        1492.1478
       CONSTANT HEAD =           0.0000         CONSTANT HEAD =           0.0000
               WELLS =           0.0000                 WELLS =           0.0000
     HEAD DEP BOUNDS =        6265.7119       HEAD DEP BOUNDS =         174.2587

            TOTAL IN =      371922.6875              TOTAL IN =        1666.4065

          OUT:                                     OUT:
          ----                                     ----
             STORAGE =           0.0000               STORAGE =           0.0000
       CONSTANT HEAD =           0.0000         CONSTANT HEAD =           0.0000
               WELLS =       15000.0000                 WELLS =         500.0000
     HEAD DEP BOUNDS =      356923.5312       HEAD DEP BOUNDS =        1166.3750

           TOTAL OUT =      371923.5312             TOTAL OUT =        1666.3750

            IN - OUT =          -0.8438              IN - OUT =       3.1494E-02

 PERCENT DISCREPANCY =          -0.00     PERCENT DISCREPANCY =           0.00






         TIME SUMMARY AT END OF TIME STEP   30 IN STRESS PERIOD    3
                    SECONDS     MINUTES      HOURS       DAYS        YEARS
                    -----------------------------------------------------------
   TIME STEP LENGTH  86400.      1440.0      24.000      1.0000     2.73785E-03
 STRESS PERIOD TIME 2.59200E+06  43200.      720.00      30.000     8.21355E-02
         TOTAL TIME 1.13184E+07 1.88640E+05  3144.0      131.00     0.35866    
1
 
 SOLVING FOR HEAD 

 OUTPUT CONTROL FOR STRESS PERIOD    3   TIME STEP   31
    SAVE HEAD FOR ALL LAYERS
    SAVE DRAWDOWN FOR ALL LAYERS
    SAVE BUDGET
    PRINT HEAD FOR ALL LAYERS
    PRINT BUDGET
 UBDSV1 SAVING "         STORAGE" ON UNIT  53 AT TIME STEP 31, STRESS PERIOD   3
 UBDSV2 SAVING "   CONSTANT HEAD" ON UNIT  53 AT TIME STEP 31, STRESS PERIOD   3
 UBDSV1 SAVING "FLOW RIGHT FACE " ON UNIT  53 AT TIME STEP 31, STRESS PERIOD   3
 UBDSV1 SAVING "FLOW FRONT FACE " ON UNIT  53 AT TIME STEP 31, STRESS PERIOD   3
 UBDSV1 SAVING "FLOW LOWER FACE " ON UNIT  53 AT TIME STEP 31, STRESS PERIOD   3
1
              HEAD IN LAYER   1 AT END OF TIME STEP  31 IN STRESS PERIOD    3
  ---------------------------------------------------------------------------

            1           2           3           4           5           6           7           8           9          10
 ........................................................................................................................
   1    9.999       9.736       9.402       8.926       8.244       7.295       6.010       4.349       2.326      2.0681E-03
   2    9.999       9.729       9.381       8.884       8.182       7.252       5.989       4.341       2.323      2.0655E-03
   3    9.999       9.710       9.325       8.755       7.969       7.121       5.932       4.321       2.317      2.0597E-03
   4    9.999       9.680       9.220       8.454       7.299       6.813       5.823       4.287       2.309      2.0509E-03
   5    9.999       9.655       9.112       7.987       4.553       6.326       5.709       4.260       2.302      2.0449E-03
   6    9.999       9.680       9.220       8.454       7.299       6.813       5.823       4.287       2.309      2.0509E-03
   7    9.999       9.710       9.326       8.755       7.969       7.122       5.932       4.321       2.318      2.0598E-03
   8    9.999       9.729       9.382       8.885       8.184       7.254       5.990       4.341       2.324      2.0658E-03
   9    9.999       9.738       9.405       8.932       8.251       7.301       6.013       4.351       2.327      2.0686E-03
  10    9.999       9.741       9.413       8.946       8.270       7.315       6.021       4.354       2.328      2.0696E-03
1
              HEAD IN LAYER   2 AT END OF TIME STEP  31 IN STRESS PERIOD    3
  ---------------------------------------------------------------------------

            1           2           3           4           5           6           7           8           9          10
 ........................................................................................................................
   1    9.999       9.732       9.393       8.913       8.228       7.277       5.992       4.334       2.315      4.8475E-03
   2    9.999       9.724       9.371       8.868       8.163       7.232       5.970       4.325       2.312      4.8418E-03
   3    9.999       9.704       9.313       8.735       7.944       7.097       5.911       4.304       2.306      4.8286E-03
   4    9.999       9.672       9.204       8.427       7.268       6.783       5.798       4.269       2.297      4.8090E-03
   5    9.999       9.647       9.094       7.957       4.897       6.295       5.682       4.241       2.291      4.7955E-03
   6    9.999       9.673       9.204       8.427       7.268       6.783       5.798       4.269       2.297      4.8090E-03
   7    9.999       9.704       9.313       8.735       7.944       7.097       5.911       4.304       2.306      4.8287E-03
   8    9.999       9.724       9.372       8.870       8.165       7.234       5.971       4.326       2.313      4.8422E-03
   9    9.999       9.733       9.397       8.920       8.235       7.283       5.996       4.335       2.316      4.8488E-03
  10    9.999       9.737       9.405       8.935       8.255       7.298       6.004       4.339       2.317      4.8512E-03
1
              HEAD IN LAYER   3 AT END OF TIME STEP  31 IN STRESS PERIOD    3
  ---------------------------------------------------------------------------

            1           2           3           4           5           6           7           8           9          10
 ........................................................................................................................
   1    9.999       9.729       9.386       8.903       8.214       7.261       5.976       4.319       2.303      5.4282E-03
   2    9.999       9.720       9.363       8.856       8.148       7.215       5.953       4.309       2.301      5.4214E-03
   3    9.999       9.700       9.303       8.719       7.923       7.076       5.891       4.287       2.294      5.4059E-03
   4    9.999       9.667       9.191       8.406       7.247       6.756       5.776       4.251       2.284      5.3830E-03
   5    9.999       9.641       9.079       7.937       5.209       6.273       5.659       4.222       2.278      5.3675E-03
   6    9.999       9.667       9.191       8.406       7.247       6.757       5.776       4.251       2.284      5.3830E-03
   7    9.999       9.700       9.303       8.719       7.924       7.076       5.891       4.287       2.294      5.4060E-03
   8    9.999       9.721       9.365       8.858       8.150       7.217       5.954       4.310       2.301      5.4219E-03
   9    9.999       9.730       9.390       8.910       8.222       7.268       5.980       4.320       2.304      5.4297E-03
  10    9.999       9.734       9.399       8.925       8.243       7.284       5.988       4.324       2.305      5.4326E-03
1
              HEAD IN LAYER   4 AT END OF TIME STEP  31 IN STRESS PERIOD    3
  ---------------------------------------------------------------------------

            1           2           3           4           5           6           7           8           9          10
 ........................................................................................................................
   1    9.999       9.726       9.382       8.896       8.205       7.251       5.965       4.308       2.296      5.4867E-03
   2    9.999       9.718       9.358       8.848       8.137       7.203       5.941       4.299       2.293      5.4795E-03
   3    9.999       9.697       9.297       8.708       7.910       7.061       5.878       4.276       2.286      5.4633E-03
   4    9.999       9.663       9.183       8.392       7.235       6.739       5.761       4.239       2.276      5.4394E-03
   5    9.999       9.637       9.070       7.927       5.406       6.261       5.643       4.210       2.269      5.4234E-03
   6    9.999       9.663       9.183       8.392       7.235       6.739       5.761       4.239       2.276      5.4395E-03
   7    9.999       9.697       9.297       8.709       7.911       7.062       5.878       4.276       2.286      5.4634E-03
   8    9.999       9.718       9.360       8.850       8.140       7.205       5.942       4.300       2.293      5.4800E-03
   9    9.999       9.728       9.386       8.903       8.214       7.258       5.969       4.310       2.296      5.4883E-03
  10    9.999       9.732       9.395       8.919       8.235       7.274       5.978       4.314       2.298      5.4914E-03
1
              HEAD IN LAYER   5 AT END OF TIME STEP  31 IN STRESS PERIOD    3
  ---------------------------------------------------------------------------

            1           2           3           4           5           6           7           8           9          10
 ........................................................................................................................
   1    9.999       9.725       9.380       8.893       8.200       7.246       5.960       4.303       2.292      5.4870E-03
   2    9.999       9.717       9.356       8.844       8.132       7.197       5.935       4.294       2.289      5.4797E-03
   3    9.999       9.695       9.293       8.703       7.903       7.054       5.872       4.270       2.282      5.4631E-03
   4    9.999       9.661       9.179       8.385       7.230       6.731       5.753       4.233       2.272      5.4389E-03
   5    9.999       9.635       9.065       7.922       5.503       6.255       5.635       4.204       2.265      5.4227E-03
   6    9.999       9.661       9.179       8.385       7.230       6.731       5.753       4.233       2.272      5.4390E-03
   7    9.999       9.695       9.294       8.704       7.904       7.055       5.872       4.271       2.282      5.4633E-03
   8    9.999       9.717       9.357       8.846       8.134       7.199       5.937       4.294       2.289      5.4803E-03
   9    9.999       9.727       9.384       8.900       8.209       7.253       5.964       4.305       2.292      5.4887E-03
  10    9.999       9.731       9.393       8.916       8.231       7.269       5.973       4.309       2.294      5.4919E-03

 HEAD WILL BE SAVED ON UNIT   51 AT END OF TIME STEP   31, STRESS PERIOD    3

 DRAWDOWN WILL BE SAVED ON UNIT   52 AT END OF TIME STEP   31, STRESS PERIOD    3
1
  VOLUMETRIC BUDGET FOR ENTIRE MODEL AT END OF TIME STEP   31, STRESS PERIOD   3
  ------------------------------------------------------------------------------

     CUMULATIVE VOLUMES      L**3       RATES FOR THIS TIME STEP      L**3/T
     ------------------                 ------------------------

           IN:                                      IN:
           ---                                      ---
             STORAGE =      367140.6875               STORAGE =        1483.7241
       CONSTANT HEAD =           0.0000         CONSTANT HEAD =           0.0000
               WELLS =           0.0000                 WELLS =           0.0000
     HEAD DEP BOUNDS =        6443.5020       HEAD DEP BOUNDS =         177.7901

            TOTAL IN =      373584.1875              TOTAL IN =        1661.5142

          OUT:                                     OUT:
          ----                                     ----
             STORAGE =           0.0000               STORAGE =           0.0000
       CONSTANT HEAD =           0.0000         CONSTANT HEAD =           0.0000
               WELLS =       15500.0000                 WELLS =         500.0000
     HEAD DEP BOUNDS =      358085.0000       HEAD DEP BOUNDS =        1161.4749

           TOTAL OUT =      373585.0000             TOTAL OUT =        1661.4749

            IN - OUT =          -0.8125              IN - OUT =       3.9307E-02

 PERCENT DISCREPANCY =          -0.00     PERCENT DISCREPANCY =           0.00






         TIME SUMMARY AT END OF TIME STEP   31 IN STRESS PERIOD    3
                    SECONDS     MINUTES      HOURS       DAYS        YEARS
                    -----------------------------------------------------------
   TIME STEP LENGTH  86400.      1440.0      24.000      1.0000     2.73785E-03
 STRESS PERIOD TIME 2.67840E+06  44640.      744.00      31.000     8.48734E-02
         TOTAL TIME 1.14048E+07 1.90080E+05  3168.0      132.00     0.36140    
1
 
 SOLVING FOR HEAD 

 OUTPUT CONTROL FOR STRESS PERIOD    3   TIME STEP   32
    SAVE HEAD FOR ALL LAYERS
    SAVE DRAWDOWN FOR ALL LAYERS
    SAVE BUDGET
    PRINT HEAD FOR ALL LAYERS
    PRINT BUDGET
 UBDSV1 SAVING "         STORAGE" ON UNIT  53 AT TIME STEP 32, STRESS PERIOD   3
 UBDSV2 SAVING "   CONSTANT HEAD" ON UNIT  53 AT TIME STEP 32, STRESS PERIOD   3
 UBDSV1 SAVING "FLOW RIGHT FACE " ON UNIT  53 AT TIME STEP 32, STRESS PERIOD   3
 UBDSV1 SAVING "FLOW FRONT FACE " ON UNIT  53 AT TIME STEP 32, STRESS PERIOD   3
 UBDSV1 SAVING "FLOW LOWER FACE " ON UNIT  53 AT TIME STEP 32, STRESS PERIOD   3
1
              HEAD IN LAYER   1 AT END OF TIME STEP  32 IN STRESS PERIOD    3
  ---------------------------------------------------------------------------

            1           2           3           4           5           6           7           8           9          10
 ........................................................................................................................
   1    9.999       9.732       9.393       8.913       8.227       7.276       5.991       4.334       2.317      2.0593E-03
   2    9.999       9.724       9.371       8.868       8.162       7.231       5.969       4.325       2.314      2.0565E-03
   3    9.999       9.704       9.312       8.734       7.942       7.094       5.909       4.303       2.308      2.0502E-03
   4    9.999       9.672       9.203       8.426       7.263       6.779       5.795       4.268       2.298      2.0411E-03
   5    9.999       9.647       9.093       7.954       4.507       6.287       5.679       4.239       2.292      2.0347E-03
   6    9.999       9.672       9.203       8.426       7.263       6.779       5.795       4.268       2.298      2.0411E-03
   7    9.999       9.704       9.312       8.734       7.943       7.095       5.909       4.303       2.308      2.0503E-03
   8    9.999       9.724       9.372       8.869       8.164       7.232       5.970       4.325       2.314      2.0567E-03
   9    9.999       9.733       9.396       8.919       8.234       7.282       5.995       4.335       2.317      2.0599E-03
  10    9.999       9.737       9.405       8.934       8.254       7.297       6.003       4.339       2.319      2.0610E-03
1
              HEAD IN LAYER   2 AT END OF TIME STEP  32 IN STRESS PERIOD    3
  ---------------------------------------------------------------------------

            1           2           3           4           5           6           7           8           9          10
 ........................................................................................................................
   1    9.999       9.727       9.384       8.899       8.210       7.258       5.973       4.318       2.306      4.8285E-03
   2    9.999       9.719       9.361       8.852       8.143       7.210       5.950       4.309       2.303      4.8223E-03
   3    9.999       9.698       9.299       8.714       7.917       7.070       5.887       4.286       2.296      4.8080E-03
   4    9.999       9.665       9.187       8.399       7.232       6.749       5.771       4.250       2.287      4.7872E-03
   5    9.999       9.639       9.075       7.924       4.852       6.257       5.653       4.221       2.280      4.7731E-03
   6    9.999       9.665       9.187       8.399       7.232       6.749       5.771       4.250       2.287      4.7872E-03
   7    9.999       9.698       9.300       8.714       7.918       7.070       5.888       4.286       2.297      4.8082E-03
   8    9.999       9.719       9.362       8.854       8.145       7.212       5.951       4.310       2.303      4.8227E-03
   9    9.999       9.729       9.388       8.906       8.218       7.264       5.977       4.320       2.307      4.8300E-03
  10    9.999       9.733       9.397       8.922       8.239       7.280       5.986       4.324       2.308      4.8326E-03
1
              HEAD IN LAYER   3 AT END OF TIME STEP  32 IN STRESS PERIOD    3
  ---------------------------------------------------------------------------

            1           2           3           4           5           6           7           8           9          10
 ........................................................................................................................
   1    9.999       9.724       9.377       8.889       8.196       7.242       5.957       4.303       2.294      5.4071E-03
   2    9.999       9.715       9.353       8.840       8.127       7.193       5.933       4.293       2.291      5.3997E-03
   3    9.999       9.694       9.290       8.698       7.897       7.049       5.868       4.270       2.284      5.3831E-03
   4    9.999       9.659       9.174       8.378       7.211       6.723       5.749       4.232       2.274      5.3588E-03
   5    9.999       9.633       9.060       7.905       5.165       6.235       5.629       4.202       2.267      5.3426E-03
   6    9.999       9.659       9.174       8.379       7.211       6.723       5.749       4.232       2.274      5.3588E-03
   7    9.999       9.694       9.290       8.698       7.898       7.049       5.868       4.270       2.284      5.3832E-03
   8    9.999       9.716       9.354       8.842       8.130       7.195       5.934       4.294       2.292      5.4003E-03
   9    9.999       9.726       9.382       8.896       8.205       7.249       5.961       4.305       2.295      5.4089E-03
  10    9.999       9.730       9.391       8.913       8.227       7.266       5.971       4.309       2.297      5.4120E-03
1
              HEAD IN LAYER   4 AT END OF TIME STEP  32 IN STRESS PERIOD    3
  ---------------------------------------------------------------------------

            1           2           3           4           5           6           7           8           9          10
 ........................................................................................................................
   1    9.999       9.722       9.373       8.882       8.187       7.232       5.946       4.293       2.287      5.4655E-03
   2    9.999       9.713       9.348       8.832       8.117       7.181       5.921       4.283       2.284      5.4577E-03
   3    9.999       9.691       9.283       8.687       7.883       7.035       5.855       4.259       2.276      5.4403E-03
   4    9.999       9.655       9.166       8.365       7.200       6.706       5.734       4.220       2.266      5.4150E-03
   5    9.999       9.628       9.051       7.895       5.364       6.223       5.614       4.190       2.259      5.3982E-03
   6    9.999       9.655       9.166       8.365       7.200       6.706       5.734       4.220       2.266      5.4150E-03
   7    9.999       9.691       9.283       8.688       7.884       7.035       5.855       4.259       2.276      5.4404E-03
   8    9.999       9.713       9.349       8.834       8.119       7.184       5.922       4.284       2.284      5.4583E-03
   9    9.999       9.724       9.377       8.890       8.197       7.239       5.951       4.295       2.288      5.4673E-03
  10    9.999       9.728       9.387       8.907       8.219       7.256       5.960       4.300       2.289      5.4707E-03
1
              HEAD IN LAYER   5 AT END OF TIME STEP  32 IN STRESS PERIOD    3
  ---------------------------------------------------------------------------

            1           2           3           4           5           6           7           8           9          10
 ........................................................................................................................
   1    9.999       9.721       9.370       8.879       8.183       7.226       5.941       4.288       2.283      5.4659E-03
   2    9.999       9.711       9.345       8.828       8.111       7.176       5.915       4.278       2.280      5.4580E-03
   3    9.999       9.689       9.280       8.682       7.877       7.028       5.849       4.253       2.272      5.4402E-03
   4    9.999       9.654       9.162       8.358       7.195       6.697       5.727       4.214       2.261      5.4145E-03
   5    9.999       9.626       9.046       7.891       5.460       6.218       5.606       4.184       2.254      5.3976E-03
   6    9.999       9.654       9.162       8.358       7.195       6.697       5.727       4.214       2.261      5.4146E-03
   7    9.999       9.689       9.280       8.683       7.877       7.028       5.849       4.253       2.272      5.4404E-03
   8    9.999       9.712       9.346       8.830       8.114       7.178       5.917       4.279       2.280      5.4586E-03
   9    9.999       9.723       9.375       8.886       8.192       7.234       5.946       4.290       2.284      5.4678E-03
  10    9.999       9.727       9.385       8.904       8.215       7.252       5.955       4.295       2.285      5.4712E-03

 HEAD WILL BE SAVED ON UNIT   51 AT END OF TIME STEP   32, STRESS PERIOD    3

 DRAWDOWN WILL BE SAVED ON UNIT   52 AT END OF TIME STEP   32, STRESS PERIOD    3
1
  VOLUMETRIC BUDGET FOR ENTIRE MODEL AT END OF TIME STEP   32, STRESS PERIOD   3
  ------------------------------------------------------------------------------

     CUMULATIVE VOLUMES      L**3       RATES FOR THIS TIME STEP      L**3/T
     ------------------                 ------------------------

           IN:                                      IN:
           ---                                      ---
             STORAGE =      368616.0000               STORAGE =        1475.3127
       CONSTANT HEAD =           0.0000         CONSTANT HEAD =           0.0000
               WELLS =           0.0000                 WELLS =           0.0000
     HEAD DEP BOUNDS =        6624.8247       HEAD DEP BOUNDS =         181.3226

            TOTAL IN =      375240.8125              TOTAL IN =        1656.6354

          OUT:                                     OUT:
          ----                                     ----
             STORAGE =           0.0000               STORAGE =           0.0000
       CONSTANT HEAD =           0.0000         CONSTANT HEAD =           0.0000
               WELLS =       16000.0000                 WELLS =         500.0000
     HEAD DEP BOUNDS =      359241.6250       HEAD DEP BOUNDS =        1156.6106

           TOTAL OUT =      375241.6250             TOTAL OUT =        1656.6106

            IN - OUT =          -0.8125              IN - OUT =       2.4780E-02

 PERCENT DISCREPANCY =          -0.00     PERCENT DISCREPANCY =           0.00






         TIME SUMMARY AT END OF TIME STEP   32 IN STRESS PERIOD    3
                    SECONDS     MINUTES      HOURS       DAYS        YEARS
                    -----------------------------------------------------------
   TIME STEP LENGTH  86400.      1440.0      24.000      1.0000     2.73785E-03
 STRESS PERIOD TIME 2.76480E+06  46080.      768.00      32.000     8.76112E-02
         TOTAL TIME 1.14912E+07 1.91520E+05  3192.0      133.00     0.36413    
1
 
 SOLVING FOR HEAD 

 OUTPUT CONTROL FOR STRESS PERIOD    3   TIME STEP   33
    SAVE HEAD FOR ALL LAYERS
    SAVE DRAWDOWN FOR ALL LAYERS
    SAVE BUDGET
    PRINT HEAD FOR ALL LAYERS
    PRINT BUDGET
 UBDSV1 SAVING "         STORAGE" ON UNIT  53 AT TIME STEP 33, STRESS PERIOD   3
 UBDSV2 SAVING "   CONSTANT HEAD" ON UNIT  53 AT TIME STEP 33, STRESS PERIOD   3
 UBDSV1 SAVING "FLOW RIGHT FACE " ON UNIT  53 AT TIME STEP 33, STRESS PERIOD   3
 UBDSV1 SAVING "FLOW FRONT FACE " ON UNIT  53 AT TIME STEP 33, STRESS PERIOD   3
 UBDSV1 SAVING "FLOW LOWER FACE " ON UNIT  53 AT TIME STEP 33, STRESS PERIOD   3
1
              HEAD IN LAYER   1 AT END OF TIME STEP  33 IN STRESS PERIOD    3
  ---------------------------------------------------------------------------

            1           2           3           4           5           6           7           8           9          10
 ........................................................................................................................
   1    9.999       9.727       9.383       8.899       8.209       7.256       5.972       4.318       2.308      2.0505E-03
   2    9.999       9.719       9.360       8.851       8.141       7.209       5.949       4.309       2.305      2.0475E-03
   3    9.999       9.698       9.299       8.712       7.915       7.068       5.886       4.286       2.298      2.0409E-03
   4    9.999       9.664       9.186       8.398       7.227       6.745       5.768       4.249       2.288      2.0310E-03
   5    9.999       9.638       9.074       7.922       4.463       6.248       5.649       4.219       2.281      2.0243E-03
   6    9.999       9.665       9.186       8.398       7.227       6.745       5.768       4.249       2.288      2.0310E-03
   7    9.999       9.698       9.299       8.713       7.916       7.068       5.886       4.286       2.298      2.0410E-03
   8    9.999       9.719       9.361       8.853       8.144       7.211       5.950       4.309       2.305      2.0478E-03
   9    9.999       9.729       9.388       8.906       8.217       7.263       5.977       4.320       2.309      2.0512E-03
  10    9.999       9.732       9.396       8.922       8.238       7.279       5.985       4.324       2.310      2.0525E-03
1
              HEAD IN LAYER   2 AT END OF TIME STEP  33 IN STRESS PERIOD    3
  ---------------------------------------------------------------------------

            1           2           3           4           5           6           7           8           9          10
 ........................................................................................................................
   1    9.999       9.723       9.375       8.885       8.192       7.238       5.955       4.303       2.297      4.8097E-03
   2    9.999       9.714       9.350       8.836       8.122       7.188       5.930       4.293       2.294      4.8029E-03
   3    9.999       9.692       9.286       8.693       7.891       7.043       5.864       4.269       2.287      4.7876E-03
   4    9.999       9.657       9.170       8.372       7.197       6.715       5.744       4.231       2.276      4.7654E-03
   5    9.999       9.630       9.056       7.893       4.808       6.219       5.624       4.201       2.269      4.7507E-03
   6    9.999       9.657       9.170       8.372       7.197       6.715       5.744       4.231       2.276      4.7655E-03
   7    9.999       9.692       9.286       8.693       7.891       7.044       5.865       4.269       2.287      4.7878E-03
   8    9.999       9.714       9.351       8.838       8.125       7.191       5.931       4.294       2.294      4.8034E-03
   9    9.999       9.725       9.379       8.893       8.201       7.246       5.959       4.305       2.298      4.8113E-03
  10    9.999       9.729       9.388       8.910       8.223       7.262       5.968       4.309       2.299      4.8142E-03
1
              HEAD IN LAYER   3 AT END OF TIME STEP  33 IN STRESS PERIOD    3
  ---------------------------------------------------------------------------

            1           2           3           4           5           6           7           8           9          10
 ........................................................................................................................
   1    9.999       9.719       9.368       8.875       8.179       7.223       5.938       4.288       2.286      5.3862E-03
   2    9.999       9.710       9.342       8.824       8.107       7.171       5.912       4.278       2.282      5.3782E-03
   3    9.999       9.687       9.276       8.677       7.870       7.022       5.845       4.252       2.275      5.3604E-03
   4    9.999       9.651       9.157       8.351       7.176       6.690       5.722       4.213       2.264      5.3346E-03
   5    9.999       9.624       9.041       7.874       5.123       6.198       5.600       4.182       2.256      5.3177E-03
   6    9.999       9.651       9.157       8.351       7.176       6.690       5.722       4.213       2.264      5.3347E-03
   7    9.999       9.687       9.277       8.677       7.871       7.023       5.845       4.253       2.275      5.3606E-03
   8    9.999       9.711       9.344       8.826       8.109       7.173       5.914       4.278       2.283      5.3789E-03
   9    9.999       9.722       9.373       8.883       8.188       7.230       5.943       4.290       2.286      5.3882E-03
  10    9.999       9.726       9.382       8.901       8.211       7.248       5.953       4.295       2.288      5.3917E-03
1
              HEAD IN LAYER   4 AT END OF TIME STEP  33 IN STRESS PERIOD    3
  ---------------------------------------------------------------------------

            1           2           3           4           5           6           7           8           9          10
 ........................................................................................................................
   1    9.999       9.717       9.363       8.868       8.169       7.212       5.928       4.278       2.278      5.4445E-03
   2    9.999       9.707       9.337       8.816       8.096       7.160       5.901       4.267       2.274      5.4361E-03
   3    9.999       9.684       9.270       8.666       7.857       7.008       5.832       4.242       2.267      5.4174E-03
   4    9.999       9.648       9.149       8.337       7.165       6.673       5.707       4.201       2.255      5.3906E-03
   5    9.999       9.620       9.032       7.864       5.322       6.186       5.585       4.170       2.248      5.3731E-03
   6    9.999       9.648       9.149       8.338       7.165       6.673       5.707       4.201       2.255      5.3907E-03
   7    9.999       9.684       9.270       8.667       7.858       7.009       5.833       4.242       2.267      5.4176E-03
   8    9.999       9.708       9.338       8.818       8.099       7.162       5.903       4.268       2.275      5.4368E-03
   9    9.999       9.719       9.368       8.876       8.179       7.220       5.933       4.280       2.279      5.4465E-03
  10    9.999       9.724       9.378       8.895       8.203       7.239       5.943       4.285       2.280      5.4502E-03
1
              HEAD IN LAYER   5 AT END OF TIME STEP  33 IN STRESS PERIOD    3
  ---------------------------------------------------------------------------

            1           2           3           4           5           6           7           8           9          10
 ........................................................................................................................
   1    9.999       9.716       9.361       8.865       8.165       7.207       5.922       4.273       2.274      5.4449E-03
   2    9.999       9.706       9.334       8.812       8.091       7.154       5.895       4.262       2.271      5.4363E-03
   3    9.999       9.683       9.266       8.661       7.850       7.001       5.826       4.236       2.263      5.4173E-03
   4    9.999       9.646       9.145       8.331       7.160       6.664       5.700       4.195       2.251      5.3902E-03
   5    9.999       9.618       9.027       7.860       5.419       6.181       5.577       4.164       2.244      5.3725E-03
   6    9.999       9.646       9.145       8.331       7.160       6.664       5.700       4.195       2.251      5.3902E-03
   7    9.999       9.683       9.267       8.662       7.851       7.002       5.826       4.236       2.263      5.4175E-03
   8    9.999       9.707       9.336       8.814       8.094       7.156       5.897       4.263       2.271      5.4370E-03
   9    9.999       9.718       9.366       8.873       8.175       7.215       5.927       4.276       2.275      5.4470E-03
  10    9.999       9.723       9.376       8.891       8.199       7.234       5.938       4.280       2.277      5.4508E-03

 HEAD WILL BE SAVED ON UNIT   51 AT END OF TIME STEP   33, STRESS PERIOD    3

 DRAWDOWN WILL BE SAVED ON UNIT   52 AT END OF TIME STEP   33, STRESS PERIOD    3
1
  VOLUMETRIC BUDGET FOR ENTIRE MODEL AT END OF TIME STEP   33, STRESS PERIOD   3
  ------------------------------------------------------------------------------

     CUMULATIVE VOLUMES      L**3       RATES FOR THIS TIME STEP      L**3/T
     ------------------                 ------------------------

           IN:                                      IN:
           ---                                      ---
             STORAGE =      370082.9062               STORAGE =        1466.9047
       CONSTANT HEAD =           0.0000         CONSTANT HEAD =           0.0000
               WELLS =           0.0000                 WELLS =           0.0000
     HEAD DEP BOUNDS =        6809.7266       HEAD DEP BOUNDS =         184.9019

            TOTAL IN =      376892.6250              TOTAL IN =        1651.8066

          OUT:                                     OUT:
          ----                                     ----
             STORAGE =           0.0000               STORAGE =           0.0000
       CONSTANT HEAD =           0.0000         CONSTANT HEAD =           0.0000
               WELLS =       16500.0000                 WELLS =         500.0000
     HEAD DEP BOUNDS =      360393.4062       HEAD DEP BOUNDS =        1151.7728

           TOTAL OUT =      376893.4062             TOTAL OUT =        1651.7728

            IN - OUT =          -0.7812              IN - OUT =       3.3813E-02

 PERCENT DISCREPANCY =          -0.00     PERCENT DISCREPANCY =           0.00






         TIME SUMMARY AT END OF TIME STEP   33 IN STRESS PERIOD    3
                    SECONDS     MINUTES      HOURS       DAYS        YEARS
                    -----------------------------------------------------------
   TIME STEP LENGTH  86400.      1440.0      24.000      1.0000     2.73785E-03
 STRESS PERIOD TIME 2.85120E+06  47520.      792.00      33.000     9.03491E-02
         TOTAL TIME 1.15776E+07 1.92960E+05  3216.0      134.00     0.36687    
1
 
 SOLVING FOR HEAD 

 OUTPUT CONTROL FOR STRESS PERIOD    3   TIME STEP   34
    SAVE HEAD FOR ALL LAYERS
    SAVE DRAWDOWN FOR ALL LAYERS
    SAVE BUDGET
    PRINT HEAD FOR ALL LAYERS
    PRINT BUDGET
 UBDSV1 SAVING "         STORAGE" ON UNIT  53 AT TIME STEP 34, STRESS PERIOD   3
 UBDSV2 SAVING "   CONSTANT HEAD" ON UNIT  53 AT TIME STEP 34, STRESS PERIOD   3
 UBDSV1 SAVING "FLOW RIGHT FACE " ON UNIT  53 AT TIME STEP 34, STRESS PERIOD   3
 UBDSV1 SAVING "FLOW FRONT FACE " ON UNIT  53 AT TIME STEP 34, STRESS PERIOD   3
 UBDSV1 SAVING "FLOW LOWER FACE " ON UNIT  53 AT TIME STEP 34, STRESS PERIOD   3
1
              HEAD IN LAYER   1 AT END OF TIME STEP  34 IN STRESS PERIOD    3
  ---------------------------------------------------------------------------

            1           2           3           4           5           6           7           8           9          10
 ........................................................................................................................
   1    9.999       9.723       9.374       8.885       8.191       7.237       5.954       4.303       2.299      2.0420E-03
   2    9.999       9.713       9.349       8.835       8.121       7.187       5.929       4.293       2.296      2.0388E-03
   3    9.999       9.692       9.285       8.691       7.889       7.041       5.863       4.268       2.288      2.0315E-03
   4    9.999       9.657       9.169       8.370       7.192       6.712       5.741       4.230       2.277      2.0211E-03
   5    9.999       9.630       9.055       7.891       4.420       6.210       5.620       4.199       2.270      2.0141E-03
   6    9.999       9.657       9.169       8.371       7.192       6.712       5.741       4.230       2.277      2.0211E-03
   7    9.999       9.692       9.286       8.692       7.889       7.042       5.863       4.269       2.288      2.0316E-03
   8    9.999       9.714       9.351       8.837       8.123       7.189       5.930       4.294       2.296      2.0390E-03
   9    9.999       9.725       9.379       8.892       8.200       7.245       5.958       4.305       2.300      2.0428E-03
  10    9.999       9.728       9.388       8.909       8.223       7.262       5.968       4.309       2.301      2.0442E-03
1
              HEAD IN LAYER   2 AT END OF TIME STEP  34 IN STRESS PERIOD    3
  ---------------------------------------------------------------------------

            1           2           3           4           5           6           7           8           9          10
 ........................................................................................................................
   1    9.999       9.718       9.365       8.871       8.174       7.219       5.936       4.288       2.288      4.7910E-03
   2    9.999       9.708       9.339       8.820       8.102       7.167       5.910       4.277       2.285      4.7836E-03
   3    9.999       9.685       9.273       8.672       7.864       7.017       5.841       4.252       2.277      4.7673E-03
   4    9.999       9.649       9.153       8.345       7.162       6.682       5.717       4.212       2.266      4.7438E-03
   5    9.999       9.622       9.037       7.862       4.766       6.181       5.595       4.181       2.259      4.7284E-03
   6    9.999       9.649       9.153       8.345       7.162       6.682       5.717       4.212       2.266      4.7439E-03
   7    9.999       9.686       9.273       8.672       7.865       7.017       5.842       4.252       2.277      4.7675E-03
   8    9.999       9.709       9.341       8.822       8.105       7.169       5.911       4.278       2.285      4.7842E-03
   9    9.999       9.720       9.370       8.879       8.184       7.227       5.941       4.290       2.289      4.7928E-03
  10    9.999       9.724       9.380       8.898       8.208       7.245       5.951       4.295       2.291      4.7960E-03
1
              HEAD IN LAYER   3 AT END OF TIME STEP  34 IN STRESS PERIOD    3
  ---------------------------------------------------------------------------

            1           2           3           4           5           6           7           8           9          10
 ........................................................................................................................
   1    9.999       9.715       9.358       8.861       8.161       7.203       5.920       4.273       2.277      5.3655E-03
   2    9.999       9.705       9.331       8.808       8.086       7.150       5.892       4.262       2.273      5.3569E-03
   3    9.999       9.681       9.263       8.656       7.844       6.996       5.822       4.235       2.265      5.3378E-03
   4    9.999       9.644       9.140       8.324       7.142       6.657       5.695       4.194       2.254      5.3106E-03
   5    9.999       9.616       9.023       7.843       5.081       6.161       5.572       4.162       2.246      5.2929E-03
   6    9.999       9.644       9.140       8.324       7.142       6.657       5.695       4.194       2.254      5.3107E-03
   7    9.999       9.681       9.263       8.657       7.845       6.996       5.823       4.236       2.265      5.3380E-03
   8    9.999       9.705       9.333       8.810       8.089       7.152       5.894       4.263       2.273      5.3576E-03
   9    9.999       9.717       9.364       8.869       8.171       7.212       5.925       4.276       2.278      5.3677E-03
  10    9.999       9.721       9.374       8.888       8.195       7.230       5.936       4.280       2.279      5.3715E-03
1
              HEAD IN LAYER   4 AT END OF TIME STEP  34 IN STRESS PERIOD    3
  ---------------------------------------------------------------------------

            1           2           3           4           5           6           7           8           9          10
 ........................................................................................................................
   1    9.999       9.713       9.354       8.854       8.152       7.193       5.909       4.263       2.269      5.4236E-03
   2    9.999       9.702       9.326       8.800       8.076       7.138       5.881       4.252       2.265      5.4146E-03
   3    9.999       9.678       9.256       8.645       7.831       6.982       5.809       4.224       2.257      5.3946E-03
   4    9.999       9.640       9.132       8.311       7.131       6.640       5.681       4.182       2.245      5.3664E-03
   5    9.999       9.611       9.013       7.834       5.282       6.149       5.556       4.150       2.238      5.3482E-03
   6    9.999       9.640       9.132       8.311       7.131       6.640       5.681       4.182       2.245      5.3665E-03
   7    9.999       9.678       9.256       8.646       7.832       6.983       5.810       4.225       2.257      5.3949E-03
   8    9.999       9.703       9.328       8.802       8.079       7.141       5.883       4.252       2.266      5.4153E-03
   9    9.999       9.715       9.359       8.863       8.162       7.202       5.915       4.266       2.270      5.4259E-03
  10    9.999       9.719       9.370       8.882       8.187       7.221       5.925       4.271       2.272      5.4300E-03
1
              HEAD IN LAYER   5 AT END OF TIME STEP  34 IN STRESS PERIOD    3
  ---------------------------------------------------------------------------

            1           2           3           4           5           6           7           8           9          10
 ........................................................................................................................
   1    9.999       9.711       9.351       8.850       8.147       7.188       5.904       4.258       2.265      5.4241E-03
   2    9.999       9.701       9.323       8.796       8.070       7.132       5.875       4.246       2.262      5.4149E-03
   3    9.999       9.676       9.253       8.640       7.824       6.975       5.803       4.219       2.253      5.3946E-03
   4    9.999       9.638       9.128       8.304       7.126       6.632       5.673       4.176       2.241      5.3660E-03
   5    9.999       9.609       9.009       7.829       5.379       6.144       5.549       4.144       2.233      5.3475E-03
   6    9.999       9.638       9.128       8.304       7.126       6.632       5.673       4.176       2.241      5.3660E-03
   7    9.999       9.676       9.253       8.641       7.825       6.976       5.803       4.219       2.253      5.3948E-03
   8    9.999       9.702       9.325       8.798       8.074       7.135       5.877       4.247       2.262      5.4156E-03
   9    9.999       9.714       9.357       8.859       8.158       7.197       5.909       4.261       2.266      5.4264E-03
  10    9.999       9.718       9.368       8.879       8.183       7.216       5.920       4.266       2.268      5.4306E-03

 HEAD WILL BE SAVED ON UNIT   51 AT END OF TIME STEP   34, STRESS PERIOD    3

 DRAWDOWN WILL BE SAVED ON UNIT   52 AT END OF TIME STEP   34, STRESS PERIOD    3
1
  VOLUMETRIC BUDGET FOR ENTIRE MODEL AT END OF TIME STEP   34, STRESS PERIOD   3
  ------------------------------------------------------------------------------

     CUMULATIVE VOLUMES      L**3       RATES FOR THIS TIME STEP      L**3/T
     ------------------                 ------------------------

           IN:                                      IN:
           ---                                      ---
             STORAGE =      371541.4062               STORAGE =        1458.5128
       CONSTANT HEAD =           0.0000         CONSTANT HEAD =           0.0000
               WELLS =           0.0000                 WELLS =           0.0000
     HEAD DEP BOUNDS =        6998.1982       HEAD DEP BOUNDS =         188.4717

            TOTAL IN =      378539.5938              TOTAL IN =        1646.9846

          OUT:                                     OUT:
          ----                                     ----
             STORAGE =           0.0000               STORAGE =           0.0000
       CONSTANT HEAD =           0.0000         CONSTANT HEAD =           0.0000
               WELLS =       17000.0000                 WELLS =         500.0000
     HEAD DEP BOUNDS =      361540.3750       HEAD DEP BOUNDS =        1146.9711

           TOTAL OUT =      378540.3750             TOTAL OUT =        1646.9711

            IN - OUT =          -0.7812              IN - OUT =       1.3550E-02

 PERCENT DISCREPANCY =          -0.00     PERCENT DISCREPANCY =           0.00






         TIME SUMMARY AT END OF TIME STEP   34 IN STRESS PERIOD    3
                    SECONDS     MINUTES      HOURS       DAYS        YEARS
                    -----------------------------------------------------------
   TIME STEP LENGTH  86400.      1440.0      24.000      1.0000     2.73785E-03
 STRESS PERIOD TIME 2.93760E+06  48960.      816.00      34.000     9.30869E-02
         TOTAL TIME 1.16640E+07 1.94400E+05  3240.0      135.00     0.36961    
1
 
 SOLVING FOR HEAD 

 OUTPUT CONTROL FOR STRESS PERIOD    3   TIME STEP   35
    SAVE HEAD FOR ALL LAYERS
    SAVE DRAWDOWN FOR ALL LAYERS
    SAVE BUDGET
    PRINT HEAD FOR ALL LAYERS
    PRINT BUDGET
 UBDSV1 SAVING "         STORAGE" ON UNIT  53 AT TIME STEP 35, STRESS PERIOD   3
 UBDSV2 SAVING "   CONSTANT HEAD" ON UNIT  53 AT TIME STEP 35, STRESS PERIOD   3
 UBDSV1 SAVING "FLOW RIGHT FACE " ON UNIT  53 AT TIME STEP 35, STRESS PERIOD   3
 UBDSV1 SAVING "FLOW FRONT FACE " ON UNIT  53 AT TIME STEP 35, STRESS PERIOD   3
 UBDSV1 SAVING "FLOW LOWER FACE " ON UNIT  53 AT TIME STEP 35, STRESS PERIOD   3
1
              HEAD IN LAYER   1 AT END OF TIME STEP  35 IN STRESS PERIOD    3
  ---------------------------------------------------------------------------

            1           2           3           4           5           6           7           8           9          10
 ........................................................................................................................
   1    9.999       9.718       9.365       8.871       8.173       7.218       5.935       4.288       2.290      2.0334E-03
   2    9.999       9.708       9.339       8.819       8.100       7.165       5.908       4.277       2.286      2.0300E-03
   3    9.999       9.685       9.272       8.670       7.862       7.014       5.840       4.251       2.279      2.0222E-03
   4    9.999       9.649       9.152       8.343       7.157       6.679       5.715       4.210       2.267      2.0111E-03
   5    9.999       9.622       9.036       7.860       4.378       6.173       5.591       4.179       2.260      2.0039E-03
   6    9.999       9.649       9.152       8.343       7.157       6.679       5.715       4.211       2.267      2.0111E-03
   7    9.999       9.685       9.272       8.671       7.863       7.015       5.840       4.251       2.279      2.0222E-03
   8    9.999       9.709       9.340       8.821       8.103       7.168       5.910       4.278       2.287      2.0302E-03
   9    9.999       9.720       9.370       8.879       8.183       7.226       5.940       4.290       2.291      2.0343E-03
  10    9.999       9.724       9.380       8.897       8.207       7.244       5.950       4.295       2.292      2.0358E-03
1
              HEAD IN LAYER   2 AT END OF TIME STEP  35 IN STRESS PERIOD    3
  ---------------------------------------------------------------------------

            1           2           3           4           5           6           7           8           9          10
 ........................................................................................................................
   1    9.999       9.714       9.356       8.857       8.157       7.199       5.917       4.273       2.280      4.7724E-03
   2    9.999       9.703       9.328       8.803       8.081       7.145       5.890       4.261       2.276      4.7645E-03
   3    9.999       9.679       9.259       8.651       7.838       6.990       5.818       4.235       2.268      4.7470E-03
   4    9.999       9.642       9.136       8.318       7.128       6.649       5.691       4.193       2.256      4.7223E-03
   5    9.999       9.613       9.018       7.831       4.724       6.145       5.566       4.161       2.248      4.7062E-03
   6    9.999       9.642       9.136       8.318       7.128       6.650       5.691       4.193       2.256      4.7223E-03
   7    9.999       9.679       9.260       8.651       7.839       6.991       5.819       4.235       2.268      4.7472E-03
   8    9.999       9.704       9.330       8.806       8.084       7.148       5.891       4.262       2.276      4.7652E-03
   9    9.999       9.716       9.361       8.866       8.167       7.208       5.923       4.275       2.280      4.7744E-03
  10    9.999       9.720       9.372       8.885       8.192       7.227       5.933       4.280       2.282      4.7780E-03
1
              HEAD IN LAYER   3 AT END OF TIME STEP  35 IN STRESS PERIOD    3
  ---------------------------------------------------------------------------

            1           2           3           4           5           6           7           8           9          10
 ........................................................................................................................
   1    9.999       9.710       9.349       8.847       8.143       7.184       5.901       4.258       2.268      5.3450E-03
   2    9.999       9.699       9.320       8.791       8.066       7.128       5.873       4.246       2.264      5.3357E-03
   3    9.999       9.674       9.249       8.635       7.818       6.969       5.799       4.218       2.256      5.3153E-03
   4    9.999       9.636       9.124       8.297       7.108       6.624       5.669       4.175       2.243      5.2867E-03
   5    9.999       9.607       9.004       7.813       5.041       6.125       5.543       4.143       2.236      5.2683E-03
   6    9.999       9.636       9.124       8.298       7.108       6.624       5.669       4.175       2.243      5.2868E-03
   7    9.999       9.675       9.250       8.636       7.819       6.970       5.800       4.218       2.256      5.3156E-03
   8    9.999       9.700       9.322       8.794       8.069       7.131       5.874       4.247       2.265      5.3365E-03
   9    9.999       9.713       9.355       8.856       8.154       7.193       5.907       4.261       2.269      5.3474E-03
  10    9.999       9.717       9.366       8.876       8.180       7.213       5.918       4.266       2.271      5.3516E-03
1
              HEAD IN LAYER   4 AT END OF TIME STEP  35 IN STRESS PERIOD    3
  ---------------------------------------------------------------------------

            1           2           3           4           5           6           7           8           9          10
 ........................................................................................................................
   1    9.999       9.708       9.344       8.840       8.134       7.173       5.891       4.248       2.261      5.4029E-03
   2    9.999       9.697       9.315       8.783       8.055       7.116       5.861       4.236       2.257      5.3932E-03
   3    9.999       9.671       9.242       8.625       7.805       6.956       5.786       4.207       2.248      5.3720E-03
   4    9.999       9.632       9.115       8.284       7.098       6.608       5.654       4.163       2.235      5.3423E-03
   5    9.999       9.603       8.995       7.804       5.242       6.113       5.528       4.131       2.227      5.3233E-03
   6    9.999       9.632       9.115       8.284       7.098       6.608       5.654       4.163       2.235      5.3423E-03
   7    9.999       9.672       9.243       8.625       7.806       6.956       5.787       4.208       2.248      5.3722E-03
   8    9.999       9.698       9.317       8.786       8.059       7.119       5.863       4.237       2.257      5.3941E-03
   9    9.999       9.711       9.350       8.849       8.145       7.183       5.897       4.251       2.262      5.4055E-03
  10    9.999       9.715       9.362       8.870       8.172       7.203       5.908       4.256       2.264      5.4099E-03
1
              HEAD IN LAYER   5 AT END OF TIME STEP  35 IN STRESS PERIOD    3
  ---------------------------------------------------------------------------

            1           2           3           4           5           6           7           8           9          10
 ........................................................................................................................
   1    9.999       9.707       9.342       8.836       8.129       7.168       5.885       4.243       2.257      5.4034E-03
   2    9.999       9.696       9.313       8.779       8.050       7.111       5.855       4.231       2.253      5.3935E-03
   3    9.999       9.670       9.239       8.619       7.798       6.949       5.780       4.202       2.244      5.3720E-03
   4    9.999       9.630       9.111       8.277       7.093       6.600       5.647       4.157       2.231      5.3418E-03
   5    9.999       9.601       8.990       7.800       5.339       6.109       5.520       4.125       2.223      5.3227E-03
   6    9.999       9.630       9.111       8.278       7.093       6.600       5.647       4.158       2.231      5.3419E-03
   7    9.999       9.670       9.240       8.620       7.799       6.949       5.781       4.202       2.244      5.3722E-03
   8    9.999       9.696       9.314       8.782       8.053       7.114       5.857       4.232       2.253      5.3944E-03
   9    9.999       9.709       9.348       8.846       8.141       7.178       5.891       4.246       2.258      5.4060E-03
  10    9.999       9.714       9.360       8.867       8.168       7.199       5.903       4.252       2.260      5.4105E-03

 HEAD WILL BE SAVED ON UNIT   51 AT END OF TIME STEP   35, STRESS PERIOD    3

 DRAWDOWN WILL BE SAVED ON UNIT   52 AT END OF TIME STEP   35, STRESS PERIOD    3
1
  VOLUMETRIC BUDGET FOR ENTIRE MODEL AT END OF TIME STEP   35, STRESS PERIOD   3
  ------------------------------------------------------------------------------

     CUMULATIVE VOLUMES      L**3       RATES FOR THIS TIME STEP      L**3/T
     ------------------                 ------------------------

           IN:                                      IN:
           ---                                      ---
             STORAGE =      372991.5312               STORAGE =        1450.1259
       CONSTANT HEAD =           0.0000         CONSTANT HEAD =           0.0000
               WELLS =           0.0000                 WELLS =           0.0000
     HEAD DEP BOUNDS =        7190.2627       HEAD DEP BOUNDS =         192.0643

            TOTAL IN =      380181.7812              TOTAL IN =        1642.1902

          OUT:                                     OUT:
          ----                                     ----
             STORAGE =           0.0000               STORAGE =           0.0000
       CONSTANT HEAD =           0.0000         CONSTANT HEAD =           0.0000
               WELLS =       17500.0000                 WELLS =         500.0000
     HEAD DEP BOUNDS =      362682.5625       HEAD DEP BOUNDS =        1142.1924

           TOTAL OUT =      380182.5625             TOTAL OUT =        1642.1924

            IN - OUT =          -0.7812              IN - OUT =      -2.1973E-03

 PERCENT DISCREPANCY =          -0.00     PERCENT DISCREPANCY =          -0.00






         TIME SUMMARY AT END OF TIME STEP   35 IN STRESS PERIOD    3
                    SECONDS     MINUTES      HOURS       DAYS        YEARS
                    -----------------------------------------------------------
   TIME STEP LENGTH  86400.      1440.0      24.000      1.0000     2.73785E-03
 STRESS PERIOD TIME 3.02400E+06  50400.      840.00      35.000     9.58248E-02
         TOTAL TIME 1.17504E+07 1.95840E+05  3264.0      136.00     0.37235    
1
 
 SOLVING FOR HEAD 

 OUTPUT CONTROL FOR STRESS PERIOD    3   TIME STEP   36
    SAVE HEAD FOR ALL LAYERS
    SAVE DRAWDOWN FOR ALL LAYERS
    SAVE BUDGET
    PRINT HEAD FOR ALL LAYERS
    PRINT BUDGET
 UBDSV1 SAVING "         STORAGE" ON UNIT  53 AT TIME STEP 36, STRESS PERIOD   3
 UBDSV2 SAVING "   CONSTANT HEAD" ON UNIT  53 AT TIME STEP 36, STRESS PERIOD   3
 UBDSV1 SAVING "FLOW RIGHT FACE " ON UNIT  53 AT TIME STEP 36, STRESS PERIOD   3
 UBDSV1 SAVING "FLOW FRONT FACE " ON UNIT  53 AT TIME STEP 36, STRESS PERIOD   3
 UBDSV1 SAVING "FLOW LOWER FACE " ON UNIT  53 AT TIME STEP 36, STRESS PERIOD   3
1
              HEAD IN LAYER   1 AT END OF TIME STEP  36 IN STRESS PERIOD    3
  ---------------------------------------------------------------------------

            1           2           3           4           5           6           7           8           9          10
 ........................................................................................................................
   1    9.999       9.713       9.355       8.856       8.155       7.198       5.917       4.273       2.281      2.0249E-03
   2    9.999       9.703       9.328       8.803       8.080       7.144       5.888       4.261       2.277      2.0212E-03
   3    9.999       9.679       9.258       8.650       7.836       6.988       5.817       4.234       2.269      2.0128E-03
   4    9.999       9.641       9.135       8.316       7.123       6.646       5.688       4.192       2.257      2.0014E-03
   5    9.999       9.613       9.018       7.829       4.337       6.137       5.563       4.160       2.249      1.9938E-03
   6    9.999       9.641       9.135       8.317       7.123       6.646       5.688       4.192       2.257      2.0014E-03
   7    9.999       9.679       9.259       8.650       7.837       6.989       5.817       4.234       2.269      2.0129E-03
   8    9.999       9.704       9.330       8.805       8.083       7.146       5.890       4.262       2.278      2.0215E-03
   9    9.999       9.716       9.361       8.865       8.166       7.207       5.922       4.275       2.282      2.0259E-03
  10    9.999       9.720       9.371       8.885       8.191       7.226       5.933       4.280       2.284      2.0276E-03
1
              HEAD IN LAYER   2 AT END OF TIME STEP  36 IN STRESS PERIOD    3
  ---------------------------------------------------------------------------

            1           2           3           4           5           6           7           8           9          10
 ........................................................................................................................
   1    9.999       9.709       9.346       8.843       8.139       7.180       5.899       4.258       2.271      4.7540E-03
   2    9.999       9.698       9.318       8.787       8.061       7.123       5.870       4.246       2.267      4.7455E-03
   3    9.999       9.673       9.246       8.630       7.812       6.964       5.796       4.217       2.258      4.7269E-03
   4    9.999       9.634       9.119       8.291       7.094       6.617       5.664       4.174       2.246      4.7008E-03
   5    9.999       9.605       9.000       7.801       4.683       6.109       5.538       4.141       2.238      4.6841E-03
   6    9.999       9.634       9.119       8.291       7.094       6.617       5.664       4.174       2.246      4.7009E-03
   7    9.999       9.673       9.246       8.631       7.813       6.965       5.796       4.218       2.258      4.7271E-03
   8    9.999       9.699       9.319       8.790       8.064       7.126       5.871       4.247       2.267      4.7463E-03
   9    9.999       9.711       9.352       8.853       8.150       7.189       5.905       4.261       2.272      4.7562E-03
  10    9.999       9.716       9.364       8.873       8.176       7.210       5.916       4.266       2.274      4.7601E-03
1
              HEAD IN LAYER   3 AT END OF TIME STEP  36 IN STRESS PERIOD    3
  ---------------------------------------------------------------------------

            1           2           3           4           5           6           7           8           9          10
 ........................................................................................................................
   1    9.999       9.705       9.339       8.832       8.125       7.164       5.883       4.243       2.259      5.3245E-03
   2    9.999       9.694       9.310       8.775       8.045       7.106       5.853       4.230       2.255      5.3146E-03
   3    9.999       9.668       9.236       8.614       7.792       6.943       5.776       4.201       2.246      5.2930E-03
   4    9.999       9.628       9.107       8.271       7.075       6.592       5.643       4.156       2.233      5.2629E-03
   5    9.999       9.599       8.986       7.784       5.001       6.089       5.515       4.123       2.225      5.2437E-03
   6    9.999       9.628       9.107       8.271       7.075       6.592       5.643       4.156       2.233      5.2630E-03
   7    9.999       9.668       9.236       8.615       7.793       6.944       5.777       4.201       2.246      5.2933E-03
   8    9.999       9.695       9.312       8.778       8.049       7.109       5.855       4.231       2.256      5.3155E-03
   9    9.999       9.708       9.345       8.842       8.137       7.174       5.889       4.246       2.261      5.3272E-03
  10    9.999       9.713       9.357       8.863       8.164       7.195       5.901       4.252       2.263      5.3318E-03
1
              HEAD IN LAYER   4 AT END OF TIME STEP  36 IN STRESS PERIOD    3
  ---------------------------------------------------------------------------

            1           2           3           4           5           6           7           8           9          10
 ........................................................................................................................
   1    9.999       9.703       9.335       8.825       8.116       7.154       5.872       4.233       2.252      5.3824E-03
   2    9.999       9.692       9.304       8.767       8.035       7.095       5.841       4.220       2.248      5.3720E-03
   3    9.999       9.665       9.229       8.604       7.779       6.929       5.764       4.190       2.238      5.3494E-03
   4    9.999       9.624       9.098       8.258       7.065       6.576       5.628       4.145       2.225      5.3183E-03
   5    9.999       9.594       8.977       7.774       5.203       6.078       5.500       4.111       2.217      5.2985E-03
   6    9.999       9.624       9.099       8.258       7.065       6.576       5.628       4.145       2.225      5.3183E-03
   7    9.999       9.665       9.230       8.605       7.780       6.930       5.764       4.191       2.238      5.3498E-03
   8    9.999       9.692       9.306       8.770       8.038       7.098       5.843       4.221       2.248      5.3729E-03
   9    9.999       9.706       9.341       8.836       8.128       7.164       5.879       4.236       2.253      5.3852E-03
  10    9.999       9.711       9.353       8.857       8.156       7.186       5.891       4.242       2.255      5.3900E-03
1
              HEAD IN LAYER   5 AT END OF TIME STEP  36 IN STRESS PERIOD    3
  ---------------------------------------------------------------------------

            1           2           3           4           5           6           7           8           9          10
 ........................................................................................................................
   1    9.999       9.702       9.332       8.822       8.111       7.149       5.867       4.228       2.248      5.3829E-03
   2    9.999       9.690       9.302       8.763       8.030       7.089       5.836       4.215       2.244      5.3723E-03
   3    9.999       9.663       9.226       8.599       7.773       6.923       5.757       4.185       2.234      5.3494E-03
   4    9.999       9.622       9.094       8.251       7.060       6.568       5.621       4.139       2.221      5.3178E-03
   5    9.999       9.592       8.972       7.770       5.301       6.073       5.492       4.105       2.213      5.2979E-03
   6    9.999       9.622       9.094       8.251       7.060       6.568       5.621       4.139       2.221      5.3179E-03
   7    9.999       9.664       9.226       8.600       7.774       6.923       5.758       4.185       2.234      5.3497E-03
   8    9.999       9.691       9.304       8.766       8.033       7.092       5.838       4.216       2.244      5.3733E-03
   9    9.999       9.705       9.339       8.832       8.124       7.159       5.873       4.232       2.249      5.3858E-03
  10    9.999       9.710       9.351       8.854       8.152       7.181       5.886       4.237       2.252      5.3907E-03

 HEAD WILL BE SAVED ON UNIT   51 AT END OF TIME STEP   36, STRESS PERIOD    3

 DRAWDOWN WILL BE SAVED ON UNIT   52 AT END OF TIME STEP   36, STRESS PERIOD    3
1
  VOLUMETRIC BUDGET FOR ENTIRE MODEL AT END OF TIME STEP   36, STRESS PERIOD   3
  ------------------------------------------------------------------------------

     CUMULATIVE VOLUMES      L**3       RATES FOR THIS TIME STEP      L**3/T
     ------------------                 ------------------------

           IN:                                      IN:
           ---                                      ---
             STORAGE =      374433.3125               STORAGE =        1441.7666
       CONSTANT HEAD =           0.0000         CONSTANT HEAD =           0.0000
               WELLS =           0.0000                 WELLS =           0.0000
     HEAD DEP BOUNDS =        7385.9541       HEAD DEP BOUNDS =         195.6913

            TOTAL IN =      381819.2812              TOTAL IN =        1637.4579

          OUT:                                     OUT:
          ----                                     ----
             STORAGE =           0.0000               STORAGE =           0.0000
       CONSTANT HEAD =           0.0000         CONSTANT HEAD =           0.0000
               WELLS =       18000.0000                 WELLS =         500.0000
     HEAD DEP BOUNDS =      363820.0000       HEAD DEP BOUNDS =        1137.4474

           TOTAL OUT =      381820.0000             TOTAL OUT =        1637.4474

            IN - OUT =          -0.7188              IN - OUT =       1.0498E-02

 PERCENT DISCREPANCY =          -0.00     PERCENT DISCREPANCY =           0.00






         TIME SUMMARY AT END OF TIME STEP   36 IN STRESS PERIOD    3
                    SECONDS     MINUTES      HOURS       DAYS        YEARS
                    -----------------------------------------------------------
   TIME STEP LENGTH  86400.      1440.0      24.000      1.0000     2.73785E-03
 STRESS PERIOD TIME 3.11040E+06  51840.      864.00      36.000     9.85626E-02
         TOTAL TIME 1.18368E+07 1.97280E+05  3288.0      137.00     0.37509    
1
 
 SOLVING FOR HEAD 

 OUTPUT CONTROL FOR STRESS PERIOD    3   TIME STEP   37
    SAVE HEAD FOR ALL LAYERS
    SAVE DRAWDOWN FOR ALL LAYERS
    SAVE BUDGET
    PRINT HEAD FOR ALL LAYERS
    PRINT BUDGET
 UBDSV1 SAVING "         STORAGE" ON UNIT  53 AT TIME STEP 37, STRESS PERIOD   3
 UBDSV2 SAVING "   CONSTANT HEAD" ON UNIT  53 AT TIME STEP 37, STRESS PERIOD   3
 UBDSV1 SAVING "FLOW RIGHT FACE " ON UNIT  53 AT TIME STEP 37, STRESS PERIOD   3
 UBDSV1 SAVING "FLOW FRONT FACE " ON UNIT  53 AT TIME STEP 37, STRESS PERIOD   3
 UBDSV1 SAVING "FLOW LOWER FACE " ON UNIT  53 AT TIME STEP 37, STRESS PERIOD   3
1
              HEAD IN LAYER   1 AT END OF TIME STEP  37 IN STRESS PERIOD    3
  ---------------------------------------------------------------------------

            1           2           3           4           5           6           7           8           9          10
 ........................................................................................................................
   1    9.999       9.709       9.346       8.842       8.138       7.179       5.898       4.258       2.272      2.0164E-03
   2    9.999       9.698       9.317       8.786       8.060       7.122       5.869       4.245       2.268      2.0124E-03
   3    9.999       9.672       9.245       8.629       7.810       6.962       5.794       4.217       2.259      2.0038E-03
   4    9.999       9.634       9.119       8.290       7.090       6.613       5.662       4.173       2.247      1.9916E-03
   5    9.999       9.605       8.999       7.799       4.297       6.101       5.534       4.140       2.239      1.9837E-03
   6    9.999       9.634       9.119       8.290       7.090       6.614       5.662       4.173       2.247      1.9916E-03
   7    9.999       9.673       9.245       8.630       7.811       6.963       5.794       4.217       2.259      2.0039E-03
   8    9.999       9.699       9.319       8.789       8.063       7.125       5.870       4.246       2.269      2.0129E-03
   9    9.999       9.711       9.352       8.852       8.149       7.188       5.904       4.261       2.273      2.0175E-03
  10    9.999       9.716       9.363       8.872       8.175       7.209       5.915       4.266       2.275      2.0194E-03
1
              HEAD IN LAYER   2 AT END OF TIME STEP  37 IN STRESS PERIOD    3
  ---------------------------------------------------------------------------

            1           2           3           4           5           6           7           8           9          10
 ........................................................................................................................
   1    9.999       9.704       9.337       8.829       8.121       7.161       5.880       4.243       2.262      4.7357E-03
   2    9.999       9.693       9.307       8.771       8.040       7.102       5.850       4.230       2.258      4.7266E-03
   3    9.999       9.666       9.232       8.609       7.786       6.938       5.773       4.200       2.248      4.7069E-03
   4    9.999       9.626       9.103       8.265       7.061       6.585       5.638       4.155       2.236      4.6795E-03
   5    9.999       9.596       8.981       7.772       4.644       6.073       5.510       4.122       2.227      4.6621E-03
   6    9.999       9.626       9.103       8.265       7.061       6.585       5.638       4.155       2.236      4.6796E-03
   7    9.999       9.666       9.233       8.610       7.787       6.939       5.773       4.201       2.249      4.7072E-03
   8    9.999       9.694       9.309       8.774       8.044       7.105       5.852       4.231       2.258      4.7275E-03
   9    9.999       9.707       9.343       8.839       8.133       7.171       5.887       4.246       2.263      4.7382E-03
  10    9.999       9.712       9.355       8.860       8.160       7.192       5.899       4.252       2.265      4.7424E-03
1
              HEAD IN LAYER   3 AT END OF TIME STEP  37 IN STRESS PERIOD    3
  ---------------------------------------------------------------------------

            1           2           3           4           5           6           7           8           9          10
 ........................................................................................................................
   1    9.999       9.701       9.330       8.818       8.107       7.145       5.864       4.228       2.251      5.3043E-03
   2    9.999       9.689       9.299       8.759       8.025       7.085       5.833       4.215       2.246      5.2937E-03
   3    9.999       9.661       9.222       8.594       7.766       6.917       5.754       4.184       2.237      5.2708E-03
   4    9.999       9.620       9.090       8.245       7.042       6.561       5.616       4.138       2.223      5.2392E-03
   5    9.999       9.590       8.967       7.755       4.962       6.054       5.487       4.104       2.215      5.2193E-03
   6    9.999       9.620       9.090       8.245       7.043       6.561       5.617       4.138       2.223      5.2393E-03
   7    9.999       9.662       9.223       8.594       7.768       6.918       5.754       4.184       2.237      5.2711E-03
   8    9.999       9.690       9.301       8.762       8.029       7.088       5.835       4.216       2.247      5.2947E-03
   9    9.999       9.704       9.336       8.829       8.120       7.156       5.871       4.232       2.252      5.3072E-03
  10    9.999       9.709       9.349       8.851       8.148       7.178       5.884       4.237       2.254      5.3122E-03
1
              HEAD IN LAYER   4 AT END OF TIME STEP  37 IN STRESS PERIOD    3
  ---------------------------------------------------------------------------

            1           2           3           4           5           6           7           8           9          10
 ........................................................................................................................
   1    9.999       9.698       9.325       8.811       8.098       7.135       5.854       4.219       2.243      5.3619E-03
   2    9.999       9.686       9.293       8.750       8.014       7.073       5.821       4.205       2.239      5.3509E-03
   3    9.999       9.658       9.215       8.583       7.753       6.903       5.741       4.173       2.229      5.3270E-03
   4    9.999       9.616       9.082       8.232       7.032       6.544       5.602       4.126       2.215      5.2943E-03
   5    9.999       9.586       8.958       7.745       5.165       6.043       5.472       4.092       2.206      5.2739E-03
   6    9.999       9.617       9.082       8.232       7.032       6.545       5.602       4.126       2.215      5.2944E-03
   7    9.999       9.659       9.216       8.584       7.755       6.904       5.742       4.174       2.229      5.3274E-03
   8    9.999       9.687       9.296       8.754       8.018       7.077       5.824       4.206       2.239      5.3520E-03
   9    9.999       9.701       9.332       8.822       8.111       7.146       5.861       4.222       2.245      5.3651E-03
  10    9.999       9.707       9.345       8.845       8.140       7.168       5.874       4.228       2.247      5.3703E-03
1
              HEAD IN LAYER   5 AT END OF TIME STEP  37 IN STRESS PERIOD    3
  ---------------------------------------------------------------------------

            1           2           3           4           5           6           7           8           9          10
 ........................................................................................................................
   1    9.999       9.697       9.323       8.808       8.094       7.129       5.849       4.214       2.240      5.3625E-03
   2    9.999       9.685       9.291       8.746       8.009       7.068       5.816       4.200       2.235      5.3512E-03
   3    9.999       9.657       9.212       8.578       7.747       6.897       5.735       4.168       2.225      5.3270E-03
   4    9.999       9.615       9.078       8.225       7.028       6.536       5.595       4.120       2.211      5.2939E-03
   5    9.999       9.584       8.954       7.741       5.263       6.039       5.465       4.086       2.202      5.2733E-03
   6    9.999       9.615       9.078       8.226       7.028       6.537       5.595       4.120       2.211      5.2940E-03
   7    9.999       9.657       9.213       8.579       7.748       6.898       5.735       4.168       2.225      5.3274E-03
   8    9.999       9.686       9.293       8.750       8.013       7.071       5.818       4.201       2.236      5.3523E-03
   9    9.999       9.700       9.330       8.819       8.107       7.141       5.856       4.217       2.241      5.3657E-03
  10    9.999       9.706       9.343       8.842       8.136       7.164       5.869       4.223       2.243      5.3710E-03

 HEAD WILL BE SAVED ON UNIT   51 AT END OF TIME STEP   37, STRESS PERIOD    3

 DRAWDOWN WILL BE SAVED ON UNIT   52 AT END OF TIME STEP   37, STRESS PERIOD    3
1
  VOLUMETRIC BUDGET FOR ENTIRE MODEL AT END OF TIME STEP   37, STRESS PERIOD   3
  ------------------------------------------------------------------------------

     CUMULATIVE VOLUMES      L**3       RATES FOR THIS TIME STEP      L**3/T
     ------------------                 ------------------------

           IN:                                      IN:
           ---                                      ---
             STORAGE =      375866.7188               STORAGE =        1433.4189
       CONSTANT HEAD =           0.0000         CONSTANT HEAD =           0.0000
               WELLS =           0.0000                 WELLS =           0.0000
     HEAD DEP BOUNDS =        7585.2578       HEAD DEP BOUNDS =         199.3037

            TOTAL IN =      383451.9688              TOTAL IN =        1632.7227

          OUT:                                     OUT:
          ----                                     ----
             STORAGE =           0.0000               STORAGE =           0.0000
       CONSTANT HEAD =           0.0000         CONSTANT HEAD =           0.0000
               WELLS =       18500.0000                 WELLS =         500.0000
     HEAD DEP BOUNDS =      364952.7188       HEAD DEP BOUNDS =        1132.7311

           TOTAL OUT =      383452.7188             TOTAL OUT =        1632.7311

            IN - OUT =          -0.7500              IN - OUT =      -8.4229E-03

 PERCENT DISCREPANCY =          -0.00     PERCENT DISCREPANCY =          -0.00






         TIME SUMMARY AT END OF TIME STEP   37 IN STRESS PERIOD    3
                    SECONDS     MINUTES      HOURS       DAYS        YEARS
                    -----------------------------------------------------------
   TIME STEP LENGTH  86400.      1440.0      24.000      1.0000     2.73785E-03
 STRESS PERIOD TIME 3.19680E+06  53280.      888.00      37.000     0.10130    
         TOTAL TIME 1.19232E+07 1.98720E+05  3312.0      138.00     0.37782    
1
 
 SOLVING FOR HEAD 

 OUTPUT CONTROL FOR STRESS PERIOD    3   TIME STEP   38
    SAVE HEAD FOR ALL LAYERS
    SAVE DRAWDOWN FOR ALL LAYERS
    SAVE BUDGET
    PRINT HEAD FOR ALL LAYERS
    PRINT BUDGET
 UBDSV1 SAVING "         STORAGE" ON UNIT  53 AT TIME STEP 38, STRESS PERIOD   3
 UBDSV2 SAVING "   CONSTANT HEAD" ON UNIT  53 AT TIME STEP 38, STRESS PERIOD   3
 UBDSV1 SAVING "FLOW RIGHT FACE " ON UNIT  53 AT TIME STEP 38, STRESS PERIOD   3
 UBDSV1 SAVING "FLOW FRONT FACE " ON UNIT  53 AT TIME STEP 38, STRESS PERIOD   3
 UBDSV1 SAVING "FLOW LOWER FACE " ON UNIT  53 AT TIME STEP 38, STRESS PERIOD   3
1
              HEAD IN LAYER   1 AT END OF TIME STEP  38 IN STRESS PERIOD    3
  ---------------------------------------------------------------------------

            1           2           3           4           5           6           7           8           9          10
 ........................................................................................................................
   1    9.999       9.704       9.336       8.828       8.120       7.159       5.880       4.243       2.264      2.0080E-03
   2    9.999       9.692       9.306       8.770       8.039       7.100       5.849       4.230       2.259      2.0039E-03
   3    9.999       9.666       9.231       8.608       7.784       6.936       5.771       4.200       2.250      1.9946E-03
   4    9.999       9.626       9.102       8.264       7.057       6.582       5.635       4.154       2.237      1.9817E-03
   5    9.999       9.596       8.981       7.770       4.258       6.065       5.506       4.120       2.228      1.9736E-03
   6    9.999       9.626       9.102       8.264       7.057       6.582       5.636       4.154       2.237      1.9817E-03
   7    9.999       9.666       9.232       8.609       7.785       6.936       5.772       4.200       2.250      1.9947E-03
   8    9.999       9.693       9.308       8.773       8.043       7.104       5.851       4.231       2.260      2.0044E-03
   9    9.999       9.707       9.343       8.838       8.132       7.170       5.886       4.246       2.265      2.0093E-03
  10    9.999       9.712       9.355       8.860       8.160       7.191       5.898       4.252       2.267      2.0112E-03
1
              HEAD IN LAYER   2 AT END OF TIME STEP  38 IN STRESS PERIOD    3
  ---------------------------------------------------------------------------

            1           2           3           4           5           6           7           8           9          10
 ........................................................................................................................
   1    9.999       9.699       9.327       8.815       8.103       7.141       5.862       4.228       2.254      4.7175E-03
   2    9.999       9.687       9.296       8.754       8.020       7.080       5.830       4.214       2.249      4.7079E-03
   3    9.999       9.660       9.218       8.588       7.761       6.912       5.750       4.183       2.239      4.6870E-03
   4    9.999       9.618       9.086       8.239       7.029       6.553       5.612       4.136       2.225      4.6582E-03
   5    9.999       9.588       8.963       7.743       4.605       6.038       5.482       4.102       2.217      4.6402E-03
   6    9.999       9.618       9.086       8.239       7.029       6.554       5.612       4.137       2.225      4.6583E-03
   7    9.999       9.660       9.219       8.589       7.762       6.913       5.751       4.184       2.239      4.6873E-03
   8    9.999       9.688       9.298       8.758       8.024       7.084       5.832       4.216       2.249      4.7088E-03
   9    9.999       9.702       9.334       8.826       8.116       7.152       5.869       4.231       2.255      4.7203E-03
  10    9.999       9.708       9.347       8.848       8.145       7.174       5.882       4.237       2.257      4.7248E-03
1
              HEAD IN LAYER   3 AT END OF TIME STEP  38 IN STRESS PERIOD    3
  ---------------------------------------------------------------------------

            1           2           3           4           5           6           7           8           9          10
 ........................................................................................................................
   1    9.999       9.696       9.320       8.804       8.089       7.126       5.846       4.214       2.242      5.2842E-03
   2    9.999       9.683       9.288       8.742       8.004       7.063       5.813       4.199       2.238      5.2729E-03
   3    9.999       9.655       9.208       8.573       7.741       6.891       5.731       4.167       2.227      5.2486E-03
   4    9.999       9.612       9.073       8.219       7.010       6.529       5.591       4.119       2.213      5.2156E-03
   5    9.999       9.582       8.949       7.726       4.925       6.019       5.459       4.084       2.204      5.1950E-03
   6    9.999       9.613       9.074       8.219       7.010       6.529       5.591       4.119       2.213      5.2157E-03
   7    9.999       9.655       9.209       8.574       7.742       6.892       5.732       4.168       2.227      5.2490E-03
   8    9.999       9.684       9.290       8.746       8.009       7.067       5.815       4.201       2.238      5.2740E-03
   9    9.999       9.699       9.327       8.815       8.103       7.137       5.853       4.217       2.244      5.2874E-03
  10    9.999       9.705       9.341       8.839       8.133       7.160       5.867       4.223       2.246      5.2927E-03
1
              HEAD IN LAYER   4 AT END OF TIME STEP  38 IN STRESS PERIOD    3
  ---------------------------------------------------------------------------

            1           2           3           4           5           6           7           8           9          10
 ........................................................................................................................
   1    9.999       9.694       9.315       8.797       8.080       7.115       5.836       4.204       2.235      5.3417E-03
   2    9.999       9.681       9.282       8.734       7.994       7.052       5.802       4.189       2.230      5.3299E-03
   3    9.999       9.652       9.202       8.563       7.728       6.878       5.719       4.156       2.219      5.3047E-03
   4    9.999       9.609       9.065       8.206       7.000       6.513       5.576       4.108       2.205      5.2705E-03
   5    9.999       9.578       8.940       7.717       5.128       6.009       5.445       4.072       2.196      5.2494E-03
   6    9.999       9.609       9.065       8.206       7.000       6.514       5.577       4.108       2.205      5.2706E-03
   7    9.999       9.652       9.202       8.564       7.729       6.879       5.719       4.157       2.220      5.3051E-03
   8    9.999       9.682       9.285       8.738       7.998       7.055       5.804       4.191       2.231      5.3311E-03
   9    9.999       9.697       9.323       8.809       8.094       7.127       5.843       4.208       2.236      5.3451E-03
  10    9.999       9.703       9.336       8.832       8.125       7.151       5.857       4.214       2.239      5.3507E-03
1
              HEAD IN LAYER   5 AT END OF TIME STEP  38 IN STRESS PERIOD    3
  ---------------------------------------------------------------------------

            1           2           3           4           5           6           7           8           9          10
 ........................................................................................................................
   1    9.999       9.692       9.313       8.793       8.076       7.110       5.830       4.199       2.231      5.3423E-03
   2    9.999       9.679       9.280       8.730       7.989       7.046       5.796       4.184       2.226      5.3303E-03
   3    9.999       9.650       9.198       8.557       7.722       6.871       5.712       4.151       2.216      5.3048E-03
   4    9.999       9.607       9.061       8.200       6.996       6.505       5.569       4.102       2.201      5.2702E-03
   5    9.999       9.575       8.936       7.713       5.226       6.005       5.437       4.066       2.192      5.2488E-03
   6    9.999       9.607       9.061       8.200       6.996       6.506       5.569       4.102       2.201      5.2703E-03
   7    9.999       9.651       9.199       8.558       7.723       6.872       5.713       4.151       2.216      5.3052E-03
   8    9.999       9.681       9.282       8.734       7.993       7.050       5.799       4.186       2.227      5.3315E-03
   9    9.999       9.696       9.321       8.805       8.090       7.122       5.838       4.203       2.233      5.3458E-03
  10    9.999       9.702       9.334       8.829       8.120       7.146       5.852       4.209       2.235      5.3515E-03

 HEAD WILL BE SAVED ON UNIT   51 AT END OF TIME STEP   38, STRESS PERIOD    3

 DRAWDOWN WILL BE SAVED ON UNIT   52 AT END OF TIME STEP   38, STRESS PERIOD    3
1
  VOLUMETRIC BUDGET FOR ENTIRE MODEL AT END OF TIME STEP   38, STRESS PERIOD   3
  ------------------------------------------------------------------------------

     CUMULATIVE VOLUMES      L**3       RATES FOR THIS TIME STEP      L**3/T
     ------------------                 ------------------------

           IN:                                      IN:
           ---                                      ---
             STORAGE =      377291.8125               STORAGE =        1425.0823
       CONSTANT HEAD =           0.0000         CONSTANT HEAD =           0.0000
               WELLS =           0.0000                 WELLS =           0.0000
     HEAD DEP BOUNDS =        7788.2100       HEAD DEP BOUNDS =         202.9521

            TOTAL IN =      385080.0312              TOTAL IN =        1628.0344

          OUT:                                     OUT:
          ----                                     ----
             STORAGE =           0.0000               STORAGE =           0.0000
       CONSTANT HEAD =           0.0000         CONSTANT HEAD =           0.0000
               WELLS =       19000.0000                 WELLS =         500.0000
     HEAD DEP BOUNDS =      366080.7500       HEAD DEP BOUNDS =        1128.0400

           TOTAL OUT =      385080.7500             TOTAL OUT =        1628.0400

            IN - OUT =          -0.7188              IN - OUT =      -5.6152E-03

 PERCENT DISCREPANCY =          -0.00     PERCENT DISCREPANCY =          -0.00






         TIME SUMMARY AT END OF TIME STEP   38 IN STRESS PERIOD    3
                    SECONDS     MINUTES      HOURS       DAYS        YEARS
                    -----------------------------------------------------------
   TIME STEP LENGTH  86400.      1440.0      24.000      1.0000     2.73785E-03
 STRESS PERIOD TIME 3.28320E+06  54720.      912.00      38.000     0.10404    
         TOTAL TIME 1.20096E+07 2.00160E+05  3336.0      139.00     0.38056    
1
 
 SOLVING FOR HEAD 

 OUTPUT CONTROL FOR STRESS PERIOD    3   TIME STEP   39
    SAVE HEAD FOR ALL LAYERS
    SAVE DRAWDOWN FOR ALL LAYERS
    SAVE BUDGET
    PRINT HEAD FOR ALL LAYERS
    PRINT BUDGET
 UBDSV1 SAVING "         STORAGE" ON UNIT  53 AT TIME STEP 39, STRESS PERIOD   3
 UBDSV2 SAVING "   CONSTANT HEAD" ON UNIT  53 AT TIME STEP 39, STRESS PERIOD   3
 UBDSV1 SAVING "FLOW RIGHT FACE " ON UNIT  53 AT TIME STEP 39, STRESS PERIOD   3
 UBDSV1 SAVING "FLOW FRONT FACE " ON UNIT  53 AT TIME STEP 39, STRESS PERIOD   3
 UBDSV1 SAVING "FLOW LOWER FACE " ON UNIT  53 AT TIME STEP 39, STRESS PERIOD   3
1
              HEAD IN LAYER   1 AT END OF TIME STEP  39 IN STRESS PERIOD    3
  ---------------------------------------------------------------------------

            1           2           3           4           5           6           7           8           9          10
 ........................................................................................................................
   1    9.999       9.699       9.327       8.814       8.102       7.140       5.861       4.228       2.255      2.0000E-03
   2    9.999       9.687       9.295       8.753       8.019       7.079       5.829       4.214       2.250      1.9953E-03
   3    9.999       9.659       9.218       8.587       7.759       6.910       5.749       4.183       2.240      1.9854E-03
   4    9.999       9.618       9.085       8.238       7.024       6.550       5.609       4.135       2.226      1.9720E-03
   5    9.999       9.588       8.963       7.741       4.220       6.031       5.478       4.101       2.218      1.9637E-03
   6    9.999       9.618       9.085       8.238       7.024       6.550       5.610       4.135       2.227      1.9720E-03
   7    9.999       9.660       9.218       8.588       7.760       6.911       5.749       4.183       2.240      1.9857E-03
   8    9.999       9.688       9.297       8.757       8.023       7.082       5.831       4.215       2.251      1.9958E-03
   9    9.999       9.702       9.333       8.825       8.115       7.151       5.868       4.231       2.256      2.0012E-03
  10    9.999       9.708       9.346       8.847       8.144       7.174       5.881       4.238       2.259      2.0034E-03
1
              HEAD IN LAYER   2 AT END OF TIME STEP  39 IN STRESS PERIOD    3
  ---------------------------------------------------------------------------

            1           2           3           4           5           6           7           8           9          10
 ........................................................................................................................
   1    9.999       9.695       9.317       8.800       8.085       7.122       5.844       4.213       2.245      4.6996E-03
   2    9.999       9.682       9.285       8.738       8.000       7.059       5.810       4.199       2.240      4.6892E-03
   3    9.999       9.653       9.205       8.568       7.735       6.886       5.728       4.166       2.230      4.6671E-03
   4    9.999       9.610       9.069       8.213       6.997       6.522       5.586       4.118       2.215      4.6371E-03
   5    9.999       9.580       8.945       7.714       4.567       6.004       5.454       4.083       2.207      4.6184E-03
   6    9.999       9.610       9.070       8.213       6.997       6.523       5.586       4.118       2.215      4.6372E-03
   7    9.999       9.654       9.206       8.569       7.736       6.887       5.728       4.167       2.230      4.6675E-03
   8    9.999       9.683       9.287       8.742       8.004       7.062       5.813       4.200       2.241      4.6903E-03
   9    9.999       9.698       9.325       8.812       8.099       7.134       5.851       4.217       2.246      4.7026E-03
  10    9.999       9.704       9.338       8.836       8.129       7.157       5.865       4.223       2.249      4.7074E-03
1
              HEAD IN LAYER   3 AT END OF TIME STEP  39 IN STRESS PERIOD    3
  ---------------------------------------------------------------------------

            1           2           3           4           5           6           7           8           9          10
 ........................................................................................................................
   1    9.999       9.691       9.310       8.790       8.071       7.106       5.828       4.199       2.234      5.2642E-03
   2    9.999       9.678       9.277       8.726       7.984       7.042       5.793       4.184       2.229      5.2522E-03
   3    9.999       9.648       9.195       8.552       7.716       6.866       5.709       4.150       2.218      5.2266E-03
   4    9.999       9.605       9.057       8.194       6.978       6.498       5.565       4.101       2.203      5.1921E-03
   5    9.999       9.573       8.931       7.698       4.887       5.986       5.432       4.065       2.194      5.1708E-03
   6    9.999       9.605       9.057       8.194       6.979       6.499       5.565       4.101       2.203      5.1922E-03
   7    9.999       9.649       9.196       8.554       7.717       6.867       5.710       4.151       2.218      5.2270E-03
   8    9.999       9.679       9.279       8.730       7.989       7.046       5.796       4.185       2.229      5.2534E-03
   9    9.999       9.695       9.318       8.802       8.086       7.119       5.836       4.203       2.235      5.2678E-03
  10    9.999       9.700       9.332       8.826       8.117       7.143       5.850       4.209       2.238      5.2735E-03
1
              HEAD IN LAYER   4 AT END OF TIME STEP  39 IN STRESS PERIOD    3
  ---------------------------------------------------------------------------

            1           2           3           4           5           6           7           8           9          10
 ........................................................................................................................
   1    9.999       9.689       9.306       8.782       8.062       7.096       5.817       4.189       2.227      5.3216E-03
   2    9.999       9.675       9.271       8.717       7.974       7.030       5.782       4.174       2.221      5.3091E-03
   3    9.999       9.645       9.188       8.542       7.703       6.852       5.696       4.140       2.210      5.2825E-03
   4    9.999       9.601       9.049       8.181       6.969       6.483       5.551       4.089       2.195      5.2468E-03
   5    9.999       9.569       8.922       7.689       5.091       5.976       5.417       4.053       2.186      5.2249E-03
   6    9.999       9.601       9.049       8.181       6.969       6.483       5.551       4.089       2.195      5.2470E-03
   7    9.999       9.646       9.189       8.543       7.704       6.853       5.697       4.140       2.210      5.2830E-03
   8    9.999       9.677       9.274       8.721       7.978       7.034       5.785       4.175       2.222      5.3104E-03
   9    9.999       9.692       9.314       8.795       8.077       7.109       5.825       4.193       2.228      5.3253E-03
  10    9.999       9.698       9.328       8.820       8.109       7.134       5.840       4.200       2.231      5.3313E-03
1
              HEAD IN LAYER   5 AT END OF TIME STEP  39 IN STRESS PERIOD    3
  ---------------------------------------------------------------------------

            1           2           3           4           5           6           7           8           9          10
 ........................................................................................................................
   1    9.999       9.688       9.303       8.779       8.058       7.091       5.812       4.184       2.223      5.3222E-03
   2    9.999       9.674       9.269       8.713       7.968       7.025       5.776       4.169       2.218      5.3095E-03
   3    9.999       9.644       9.185       8.537       7.696       6.845       5.690       4.134       2.206      5.2826E-03
   4    9.999       9.599       9.045       8.174       6.964       6.475       5.544       4.083       2.191      5.2465E-03
   5    9.999       9.567       8.918       7.685       5.190       5.971       5.410       4.047       2.182      5.2244E-03
   6    9.999       9.599       9.045       8.175       6.965       6.475       5.544       4.084       2.191      5.2466E-03
   7    9.999       9.644       9.186       8.538       7.698       6.846       5.691       4.135       2.207      5.2830E-03
   8    9.999       9.675       9.271       8.717       7.973       7.029       5.779       4.170       2.218      5.3108E-03
   9    9.999       9.691       9.311       8.792       8.073       7.104       5.820       4.189       2.225      5.3260E-03
  10    9.999       9.697       9.326       8.817       8.105       7.129       5.835       4.196       2.227      5.3321E-03

 HEAD WILL BE SAVED ON UNIT   51 AT END OF TIME STEP   39, STRESS PERIOD    3

 DRAWDOWN WILL BE SAVED ON UNIT   52 AT END OF TIME STEP   39, STRESS PERIOD    3
1
  VOLUMETRIC BUDGET FOR ENTIRE MODEL AT END OF TIME STEP   39, STRESS PERIOD   3
  ------------------------------------------------------------------------------

     CUMULATIVE VOLUMES      L**3       RATES FOR THIS TIME STEP      L**3/T
     ------------------                 ------------------------

           IN:                                      IN:
           ---                                      ---
             STORAGE =      378708.5938               STORAGE =        1416.7704
       CONSTANT HEAD =           0.0000         CONSTANT HEAD =           0.0000
               WELLS =           0.0000                 WELLS =           0.0000
     HEAD DEP BOUNDS =        7994.8188       HEAD DEP BOUNDS =         206.6088

            TOTAL IN =      386703.4062              TOTAL IN =        1623.3793

          OUT:                                     OUT:
          ----                                     ----
             STORAGE =           0.0000               STORAGE =           0.0000
       CONSTANT HEAD =           0.0000         CONSTANT HEAD =           0.0000
               WELLS =       19500.0000                 WELLS =         500.0000
     HEAD DEP BOUNDS =      367204.1250       HEAD DEP BOUNDS =        1123.3818

           TOTAL OUT =      386704.1250             TOTAL OUT =        1623.3818

            IN - OUT =          -0.7188              IN - OUT =      -2.5635E-03

 PERCENT DISCREPANCY =          -0.00     PERCENT DISCREPANCY =          -0.00






         TIME SUMMARY AT END OF TIME STEP   39 IN STRESS PERIOD    3
                    SECONDS     MINUTES      HOURS       DAYS        YEARS
                    -----------------------------------------------------------
   TIME STEP LENGTH  86400.      1440.0      24.000      1.0000     2.73785E-03
 STRESS PERIOD TIME 3.36960E+06  56160.      936.00      39.000     0.10678    
         TOTAL TIME 1.20960E+07 2.01600E+05  3360.0      140.00     0.38330    
1
 
 SOLVING FOR HEAD 

 OUTPUT CONTROL FOR STRESS PERIOD    3   TIME STEP   40
    SAVE HEAD FOR ALL LAYERS
    SAVE DRAWDOWN FOR ALL LAYERS
    SAVE BUDGET
    PRINT HEAD FOR ALL LAYERS
    PRINT BUDGET
 UBDSV1 SAVING "         STORAGE" ON UNIT  53 AT TIME STEP 40, STRESS PERIOD   3
 UBDSV2 SAVING "   CONSTANT HEAD" ON UNIT  53 AT TIME STEP 40, STRESS PERIOD   3
 UBDSV1 SAVING "FLOW RIGHT FACE " ON UNIT  53 AT TIME STEP 40, STRESS PERIOD   3
 UBDSV1 SAVING "FLOW FRONT FACE " ON UNIT  53 AT TIME STEP 40, STRESS PERIOD   3
 UBDSV1 SAVING "FLOW LOWER FACE " ON UNIT  53 AT TIME STEP 40, STRESS PERIOD   3
1
              HEAD IN LAYER   1 AT END OF TIME STEP  40 IN STRESS PERIOD    3
  ---------------------------------------------------------------------------

            1           2           3           4           5           6           7           8           9          10
 ........................................................................................................................
   1    9.999       9.694       9.317       8.799       8.084       7.121       5.843       4.213       2.247      1.9917E-03
   2    9.999       9.682       9.284       8.737       7.998       7.057       5.809       4.199       2.242      1.9868E-03
   3    9.999       9.653       9.204       8.567       7.733       6.884       5.726       4.166       2.231      1.9764E-03
   4    9.999       9.610       9.069       8.212       6.992       6.519       5.584       4.117       2.216      1.9625E-03
   5    9.999       9.579       8.945       7.713       4.182       5.996       5.451       4.081       2.207      1.9538E-03
   6    9.999       9.610       9.069       8.212       6.992       6.519       5.584       4.117       2.216      1.9625E-03
   7    9.999       9.653       9.205       8.568       7.735       6.885       5.727       4.166       2.231      1.9766E-03
   8    9.999       9.683       9.287       8.741       8.003       7.061       5.811       4.200       2.242      1.9873E-03
   9    9.999       9.698       9.324       8.811       8.098       7.133       5.850       4.217       2.248      1.9931E-03
  10    9.999       9.703       9.338       8.835       8.128       7.156       5.864       4.224       2.250      1.9955E-03
1
              HEAD IN LAYER   2 AT END OF TIME STEP  40 IN STRESS PERIOD    3
  ---------------------------------------------------------------------------

            1           2           3           4           5           6           7           8           9          10
 ........................................................................................................................
   1    9.999       9.690       9.308       8.786       8.067       7.103       5.825       4.199       2.236      4.6817E-03
   2    9.999       9.676       9.274       8.722       7.979       7.037       5.791       4.184       2.231      4.6707E-03
   3    9.999       9.647       9.191       8.547       7.710       6.860       5.705       4.150       2.220      4.6474E-03
   4    9.999       9.603       9.053       8.188       6.965       6.491       5.560       4.099       2.205      4.6161E-03
   5    9.999       9.571       8.927       7.686       4.530       5.970       5.427       4.063       2.196      4.5967E-03
   6    9.999       9.603       9.053       8.188       6.965       6.492       5.561       4.100       2.205      4.6162E-03
   7    9.999       9.647       9.192       8.549       7.711       6.861       5.706       4.150       2.220      4.6478E-03
   8    9.999       9.678       9.276       8.725       7.984       7.041       5.793       4.185       2.232      4.6719E-03
   9    9.999       9.693       9.316       8.798       8.082       7.115       5.833       4.203       2.238      4.6849E-03
  10    9.999       9.699       9.330       8.823       8.113       7.140       5.848       4.209       2.241      4.6902E-03
1
              HEAD IN LAYER   3 AT END OF TIME STEP  40 IN STRESS PERIOD    3
  ---------------------------------------------------------------------------

            1           2           3           4           5           6           7           8           9          10
 ........................................................................................................................
   1    9.999       9.686       9.301       8.775       8.054       7.087       5.810       4.184       2.225      5.2444E-03
   2    9.999       9.672       9.266       8.709       7.964       7.020       5.774       4.169       2.220      5.2316E-03
   3    9.999       9.642       9.181       8.532       7.691       6.840       5.686       4.134       2.209      5.2047E-03
   4    9.999       9.597       9.041       8.168       6.947       6.468       5.539       4.082       2.193      5.1687E-03
   5    9.999       9.565       8.914       7.670       4.851       5.952       5.405       4.046       2.184      5.1467E-03
   6    9.999       9.597       9.041       8.169       6.948       6.468       5.540       4.082       2.193      5.1688E-03
   7    9.999       9.642       9.182       8.533       7.692       6.841       5.687       4.134       2.209      5.2052E-03
   8    9.999       9.674       9.268       8.713       7.969       7.024       5.776       4.170       2.221      5.2330E-03
   9    9.999       9.690       9.309       8.788       8.069       7.100       5.818       4.189       2.227      5.2483E-03
  10    9.999       9.696       9.324       8.814       8.101       7.126       5.833       4.196       2.230      5.2544E-03
1
              HEAD IN LAYER   4 AT END OF TIME STEP  40 IN STRESS PERIOD    3
  ---------------------------------------------------------------------------

            1           2           3           4           5           6           7           8           9          10
 ........................................................................................................................
   1    9.999       9.684       9.296       8.768       8.044       7.077       5.799       4.175       2.218      5.3016E-03
   2    9.999       9.670       9.260       8.701       7.953       7.009       5.762       4.159       2.213      5.2883E-03
   3    9.999       9.639       9.175       8.522       7.678       6.827       5.674       4.123       2.201      5.2605E-03
   4    9.999       9.593       9.032       8.156       6.938       6.452       5.525       4.071       2.185      5.2233E-03
   5    9.999       9.561       8.905       7.661       5.055       5.942       5.390       4.034       2.176      5.2007E-03
   6    9.999       9.593       9.033       8.156       6.938       6.452       5.526       4.071       2.185      5.2234E-03
   7    9.999       9.639       9.176       8.523       7.679       6.828       5.675       4.123       2.201      5.2609E-03
   8    9.999       9.671       9.263       8.705       7.958       7.013       5.765       4.160       2.213      5.2898E-03
   9    9.999       9.688       9.304       8.782       8.061       7.090       5.808       4.179       2.220      5.3057E-03
  10    9.999       9.694       9.320       8.808       8.093       7.116       5.823       4.186       2.223      5.3121E-03
1
              HEAD IN LAYER   5 AT END OF TIME STEP  40 IN STRESS PERIOD    3
  ---------------------------------------------------------------------------

            1           2           3           4           5           6           7           8           9          10
 ........................................................................................................................
   1    9.999       9.683       9.293       8.764       8.040       7.072       5.794       4.170       2.215      5.3022E-03
   2    9.999       9.669       9.257       8.697       7.948       7.003       5.757       4.154       2.209      5.2888E-03
   3    9.999       9.637       9.171       8.517       7.671       6.820       5.668       4.118       2.197      5.2605E-03
   4    9.999       9.591       9.028       8.150       6.934       6.444       5.518       4.065       2.181      5.2229E-03
   5    9.999       9.559       8.900       7.658       5.154       5.938       5.383       4.028       2.172      5.2001E-03
   6    9.999       9.591       9.029       8.150       6.934       6.445       5.519       4.065       2.181      5.2230E-03
   7    9.999       9.637       9.172       8.518       7.673       6.821       5.669       4.118       2.197      5.2610E-03
   8    9.999       9.670       9.260       8.701       7.953       7.008       5.760       4.155       2.210      5.2903E-03
   9    9.999       9.687       9.302       8.778       8.056       7.085       5.803       4.174       2.216      5.3064E-03
  10    9.999       9.693       9.317       8.804       8.089       7.112       5.818       4.182       2.219      5.3130E-03

 HEAD WILL BE SAVED ON UNIT   51 AT END OF TIME STEP   40, STRESS PERIOD    3

 DRAWDOWN WILL BE SAVED ON UNIT   52 AT END OF TIME STEP   40, STRESS PERIOD    3
1
  VOLUMETRIC BUDGET FOR ENTIRE MODEL AT END OF TIME STEP   40, STRESS PERIOD   3
  ------------------------------------------------------------------------------

     CUMULATIVE VOLUMES      L**3       RATES FOR THIS TIME STEP      L**3/T
     ------------------                 ------------------------

           IN:                                      IN:
           ---                                      ---
             STORAGE =      380117.0625               STORAGE =        1408.4838
       CONSTANT HEAD =           0.0000         CONSTANT HEAD =           0.0000
               WELLS =           0.0000                 WELLS =           0.0000
     HEAD DEP BOUNDS =        8205.0879       HEAD DEP BOUNDS =         210.2693

            TOTAL IN =      388322.1562              TOTAL IN =        1618.7531

          OUT:                                     OUT:
          ----                                     ----
             STORAGE =           0.0000               STORAGE =           0.0000
       CONSTANT HEAD =           0.0000         CONSTANT HEAD =           0.0000
               WELLS =       20000.0000                 WELLS =         500.0000
     HEAD DEP BOUNDS =      368322.8750       HEAD DEP BOUNDS =        1118.7491

           TOTAL OUT =      388322.8750             TOTAL OUT =        1618.7491

            IN - OUT =          -0.7188              IN - OUT =       3.9062E-03

 PERCENT DISCREPANCY =          -0.00     PERCENT DISCREPANCY =           0.00






         TIME SUMMARY AT END OF TIME STEP   40 IN STRESS PERIOD    3
                    SECONDS     MINUTES      HOURS       DAYS        YEARS
                    -----------------------------------------------------------
   TIME STEP LENGTH  86400.      1440.0      24.000      1.0000     2.73785E-03
 STRESS PERIOD TIME 3.45600E+06  57600.      960.00      40.000     0.10951    
         TOTAL TIME 1.21824E+07 2.03040E+05  3384.0      141.00     0.38604    
1
 
 SOLVING FOR HEAD 

 OUTPUT CONTROL FOR STRESS PERIOD    3   TIME STEP   41
    SAVE HEAD FOR ALL LAYERS
    SAVE DRAWDOWN FOR ALL LAYERS
    SAVE BUDGET
    PRINT HEAD FOR ALL LAYERS
    PRINT BUDGET
 UBDSV1 SAVING "         STORAGE" ON UNIT  53 AT TIME STEP 41, STRESS PERIOD   3
 UBDSV2 SAVING "   CONSTANT HEAD" ON UNIT  53 AT TIME STEP 41, STRESS PERIOD   3
 UBDSV1 SAVING "FLOW RIGHT FACE " ON UNIT  53 AT TIME STEP 41, STRESS PERIOD   3
 UBDSV1 SAVING "FLOW FRONT FACE " ON UNIT  53 AT TIME STEP 41, STRESS PERIOD   3
 UBDSV1 SAVING "FLOW LOWER FACE " ON UNIT  53 AT TIME STEP 41, STRESS PERIOD   3
1
              HEAD IN LAYER   1 AT END OF TIME STEP  41 IN STRESS PERIOD    3
  ---------------------------------------------------------------------------

            1           2           3           4           5           6           7           8           9          10
 ........................................................................................................................
   1    9.999       9.690       9.307       8.785       8.066       7.101       5.825       4.199       2.238      1.9834E-03
   2    9.999       9.676       9.273       8.721       7.978       7.036       5.789       4.183       2.233      1.9783E-03
   3    9.999       9.646       9.191       8.546       7.708       6.858       5.704       4.149       2.222      1.9673E-03
   4    9.999       9.602       9.052       8.187       6.961       6.488       5.558       4.098       2.206      1.9529E-03
   5    9.999       9.571       8.927       7.685       4.145       5.963       5.424       4.062       2.197      1.9439E-03
   6    9.999       9.602       9.053       8.187       6.961       6.488       5.558       4.098       2.206      1.9529E-03
   7    9.999       9.647       9.192       8.548       7.710       6.859       5.704       4.149       2.222      1.9676E-03
   8    9.999       9.677       9.276       8.725       7.983       7.040       5.792       4.185       2.233      1.9789E-03
   9    9.999       9.693       9.315       8.798       8.081       7.114       5.833       4.203       2.240      1.9851E-03
  10    9.999       9.699       9.329       8.822       8.113       7.139       5.847       4.210       2.242      1.9875E-03
1
              HEAD IN LAYER   2 AT END OF TIME STEP  41 IN STRESS PERIOD    3
  ---------------------------------------------------------------------------

            1           2           3           4           5           6           7           8           9          10
 ........................................................................................................................
   1    9.999       9.685       9.298       8.771       8.049       7.083       5.807       4.184       2.228      4.6639E-03
   2    9.999       9.671       9.263       8.705       7.959       7.016       5.771       4.168       2.223      4.6523E-03
   3    9.999       9.640       9.178       8.527       7.685       6.835       5.683       4.133       2.211      4.6278E-03
   4    9.999       9.595       9.037       8.163       6.934       6.461       5.535       4.081       2.195      4.5951E-03
   5    9.999       9.563       8.909       7.659       4.493       5.937       5.400       4.044       2.186      4.5752E-03
   6    9.999       9.595       9.037       8.163       6.934       6.461       5.535       4.081       2.196      4.5952E-03
   7    9.999       9.640       9.179       8.528       7.686       6.836       5.684       4.133       2.211      4.6282E-03
   8    9.999       9.672       9.265       8.709       7.964       7.020       5.774       4.170       2.223      4.6535E-03
   9    9.999       9.689       9.306       8.785       8.065       7.097       5.816       4.188       2.230      4.6675E-03
  10    9.999       9.695       9.321       8.811       8.098       7.122       5.831       4.196       2.232      4.6731E-03
1
              HEAD IN LAYER   3 AT END OF TIME STEP  41 IN STRESS PERIOD    3
  ---------------------------------------------------------------------------

            1           2           3           4           5           6           7           8           9          10
 ........................................................................................................................
   1    9.999       9.681       9.291       8.761       8.036       7.068       5.791       4.170       2.217      5.2247E-03
   2    9.999       9.667       9.254       8.693       7.943       6.999       5.754       4.153       2.211      5.2112E-03
   3    9.999       9.635       9.168       8.512       7.666       6.815       5.664       4.117       2.199      5.1829E-03
   4    9.999       9.589       9.024       8.144       6.916       6.437       5.514       4.064       2.183      5.1454E-03
   5    9.999       9.556       8.896       7.642       4.815       5.919       5.378       4.027       2.174      5.1227E-03
   6    9.999       9.589       9.025       8.144       6.917       6.438       5.514       4.064       2.184      5.1456E-03
   7    9.999       9.636       9.169       8.513       7.667       6.816       5.665       4.117       2.200      5.1834E-03
   8    9.999       9.668       9.257       8.697       7.949       7.003       5.757       4.155       2.212      5.2127E-03
   9    9.999       9.685       9.300       8.775       8.052       7.082       5.800       4.174       2.219      5.2289E-03
  10    9.999       9.692       9.315       8.801       8.086       7.108       5.816       4.182       2.222      5.2355E-03
1
              HEAD IN LAYER   4 AT END OF TIME STEP  41 IN STRESS PERIOD    3
  ---------------------------------------------------------------------------

            1           2           3           4           5           6           7           8           9          10
 ........................................................................................................................
   1    9.999       9.679       9.286       8.754       8.027       7.058       5.781       4.160       2.210      5.2817E-03
   2    9.999       9.664       9.249       8.685       7.933       6.988       5.743       4.143       2.204      5.2677E-03
   3    9.999       9.632       9.161       8.501       7.653       6.801       5.652       4.106       2.192      5.2385E-03
   4    9.999       9.585       9.016       8.131       6.907       6.422       5.500       4.053       2.176      5.1998E-03
   5    9.999       9.552       8.887       7.634       5.020       5.910       5.364       4.015       2.166      5.1765E-03
   6    9.999       9.585       9.016       8.131       6.907       6.422       5.500       4.053       2.176      5.1999E-03
   7    9.999       9.632       9.162       8.503       7.654       6.803       5.653       4.107       2.192      5.2390E-03
   8    9.999       9.666       9.252       8.689       7.938       6.992       5.746       4.145       2.205      5.2693E-03
   9    9.999       9.683       9.295       8.768       8.044       7.072       5.790       4.165       2.212      5.2862E-03
  10    9.999       9.690       9.311       8.795       8.078       7.099       5.806       4.173       2.215      5.2931E-03
1
              HEAD IN LAYER   5 AT END OF TIME STEP  41 IN STRESS PERIOD    3
  ---------------------------------------------------------------------------

            1           2           3           4           5           6           7           8           9          10
 ........................................................................................................................
   1    9.999       9.678       9.284       8.750       8.022       7.052       5.776       4.155       2.206      5.2824E-03
   2    9.999       9.663       9.246       8.680       7.928       6.982       5.737       4.138       2.200      5.2682E-03
   3    9.999       9.630       9.158       8.496       7.647       6.795       5.646       4.101       2.188      5.2386E-03
   4    9.999       9.583       9.012       8.125       6.903       6.414       5.493       4.047       2.172      5.1995E-03
   5    9.999       9.550       8.883       7.631       5.119       5.906       5.356       4.009       2.162      5.1760E-03
   6    9.999       9.583       9.012       8.125       6.903       6.415       5.493       4.047       2.172      5.1996E-03
   7    9.999       9.631       9.159       8.498       7.648       6.796       5.646       4.102       2.188      5.2391E-03
   8    9.999       9.664       9.249       8.685       7.933       6.987       5.740       4.140       2.201      5.2698E-03
   9    9.999       9.682       9.293       8.765       8.039       7.067       5.785       4.160       2.208      5.2870E-03
  10    9.999       9.689       9.309       8.792       8.074       7.094       5.802       4.168       2.211      5.2940E-03

 HEAD WILL BE SAVED ON UNIT   51 AT END OF TIME STEP   41, STRESS PERIOD    3

 DRAWDOWN WILL BE SAVED ON UNIT   52 AT END OF TIME STEP   41, STRESS PERIOD    3
1
  VOLUMETRIC BUDGET FOR ENTIRE MODEL AT END OF TIME STEP   41, STRESS PERIOD   3
  ------------------------------------------------------------------------------

     CUMULATIVE VOLUMES      L**3       RATES FOR THIS TIME STEP      L**3/T
     ------------------                 ------------------------

           IN:                                      IN:
           ---                                      ---
             STORAGE =      381517.2500               STORAGE =        1400.2013
       CONSTANT HEAD =           0.0000         CONSTANT HEAD =           0.0000
               WELLS =           0.0000                 WELLS =           0.0000
     HEAD DEP BOUNDS =        8419.0107       HEAD DEP BOUNDS =         213.9226

            TOTAL IN =      389936.2500              TOTAL IN =        1614.1239

          OUT:                                     OUT:
          ----                                     ----
             STORAGE =           0.0000               STORAGE =           0.0000
       CONSTANT HEAD =           0.0000         CONSTANT HEAD =           0.0000
               WELLS =       20500.0000                 WELLS =         500.0000
     HEAD DEP BOUNDS =      369437.0312       HEAD DEP BOUNDS =        1114.1420

           TOTAL OUT =      389937.0312             TOTAL OUT =        1614.1420

            IN - OUT =          -0.7812              IN - OUT =      -1.8066E-02

 PERCENT DISCREPANCY =          -0.00     PERCENT DISCREPANCY =          -0.00






         TIME SUMMARY AT END OF TIME STEP   41 IN STRESS PERIOD    3
                    SECONDS     MINUTES      HOURS       DAYS        YEARS
                    -----------------------------------------------------------
   TIME STEP LENGTH  86400.      1440.0      24.000      1.0000     2.73785E-03
 STRESS PERIOD TIME 3.54240E+06  59040.      984.00      41.000     0.11225    
         TOTAL TIME 1.22688E+07 2.04480E+05  3408.0      142.00     0.38877    
1
 
 SOLVING FOR HEAD 

 OUTPUT CONTROL FOR STRESS PERIOD    3   TIME STEP   42
    SAVE HEAD FOR ALL LAYERS
    SAVE DRAWDOWN FOR ALL LAYERS
    SAVE BUDGET
    PRINT HEAD FOR ALL LAYERS
    PRINT BUDGET
 UBDSV1 SAVING "         STORAGE" ON UNIT  53 AT TIME STEP 42, STRESS PERIOD   3
 UBDSV2 SAVING "   CONSTANT HEAD" ON UNIT  53 AT TIME STEP 42, STRESS PERIOD   3
 UBDSV1 SAVING "FLOW RIGHT FACE " ON UNIT  53 AT TIME STEP 42, STRESS PERIOD   3
 UBDSV1 SAVING "FLOW FRONT FACE " ON UNIT  53 AT TIME STEP 42, STRESS PERIOD   3
 UBDSV1 SAVING "FLOW LOWER FACE " ON UNIT  53 AT TIME STEP 42, STRESS PERIOD   3
1
              HEAD IN LAYER   1 AT END OF TIME STEP  42 IN STRESS PERIOD    3
  ---------------------------------------------------------------------------

            1           2           3           4           5           6           7           8           9          10
 ........................................................................................................................
   1    9.999       9.685       9.297       8.771       8.048       7.082       5.806       4.184       2.230      1.9754E-03
   2    9.999       9.671       9.262       8.704       7.958       7.015       5.770       4.168       2.224      1.9698E-03
   3    9.999       9.640       9.177       8.526       7.683       6.833       5.681       4.132       2.212      1.9585E-03
   4    9.999       9.595       9.036       8.162       6.930       6.458       5.532       4.080       2.196      1.9433E-03
   5    9.999       9.563       8.909       7.657       4.109       5.929       5.396       4.043       2.187      1.9339E-03
   6    9.999       9.595       9.036       8.162       6.930       6.458       5.533       4.080       2.196      1.9433E-03
   7    9.999       9.640       9.178       8.527       7.685       6.834       5.682       4.133       2.212      1.9587E-03
   8    9.999       9.672       9.265       8.709       7.963       7.019       5.773       4.169       2.225      1.9705E-03
   9    9.999       9.689       9.306       8.784       8.064       7.096       5.815       4.188       2.231      1.9770E-03
  10    9.999       9.695       9.321       8.810       8.097       7.122       5.830       4.196       2.234      1.9797E-03
1
              HEAD IN LAYER   2 AT END OF TIME STEP  42 IN STRESS PERIOD    3
  ---------------------------------------------------------------------------

            1           2           3           4           5           6           7           8           9          10
 ........................................................................................................................
   1    9.999       9.680       9.288       8.757       8.032       7.064       5.789       4.170       2.220      4.6462E-03
   2    9.999       9.666       9.251       8.689       7.939       6.995       5.751       4.153       2.214      4.6339E-03
   3    9.999       9.633       9.164       8.507       7.660       6.809       5.661       4.116       2.202      4.6083E-03
   4    9.999       9.587       9.020       8.138       6.903       6.431       5.510       4.063       2.186      4.5743E-03
   5    9.999       9.554       8.892       7.631       4.457       5.904       5.373       4.025       2.176      4.5537E-03
   6    9.999       9.587       9.021       8.138       6.904       6.431       5.510       4.063       2.186      4.5744E-03
   7    9.999       9.634       9.165       8.508       7.662       6.811       5.662       4.117       2.202      4.6087E-03
   8    9.999       9.667       9.255       8.693       7.944       6.999       5.754       4.155       2.215      4.6354E-03
   9    9.999       9.684       9.297       8.771       8.048       7.078       5.798       4.174       2.222      4.6501E-03
  10    9.999       9.691       9.313       8.798       8.082       7.105       5.814       4.182       2.224      4.6562E-03
1
              HEAD IN LAYER   3 AT END OF TIME STEP  42 IN STRESS PERIOD    3
  ---------------------------------------------------------------------------

            1           2           3           4           5           6           7           8           9          10
 ........................................................................................................................
   1    9.999       9.676       9.281       8.746       8.018       7.049       5.773       4.155       2.209      5.2051E-03
   2    9.999       9.661       9.243       8.676       7.923       6.978       5.735       4.138       2.203      5.1909E-03
   3    9.999       9.629       9.154       8.491       7.641       6.789       5.642       4.100       2.190      5.1613E-03
   4    9.999       9.581       9.008       8.119       6.886       6.408       5.489       4.046       2.174      5.1223E-03
   5    9.999       9.548       8.878       7.616       4.780       5.887       5.351       4.008       2.164      5.0989E-03
   6    9.999       9.581       9.008       8.119       6.886       6.408       5.489       4.046       2.174      5.1224E-03
   7    9.999       9.629       9.155       8.493       7.643       6.791       5.643       4.101       2.190      5.1618E-03
   8    9.999       9.663       9.247       8.681       7.929       6.983       5.738       4.140       2.204      5.1925E-03
   9    9.999       9.681       9.290       8.761       8.035       7.063       5.783       4.160       2.211      5.2097E-03
  10    9.999       9.688       9.307       8.789       8.070       7.091       5.800       4.168       2.214      5.2167E-03
1
              HEAD IN LAYER   4 AT END OF TIME STEP  42 IN STRESS PERIOD    3
  ---------------------------------------------------------------------------

            1           2           3           4           5           6           7           8           9          10
 ........................................................................................................................
   1    9.999       9.674       9.276       8.739       8.009       7.038       5.763       4.146       2.202      5.2620E-03
   2    9.999       9.659       9.238       8.668       7.913       6.966       5.723       4.128       2.195      5.2472E-03
   3    9.999       9.625       9.148       8.481       7.628       6.776       5.630       4.090       2.183      5.2166E-03
   4    9.999       9.577       9.000       8.107       6.877       6.392       5.475       4.034       2.166      5.1764E-03
   5    9.999       9.544       8.870       7.607       4.985       5.877       5.337       3.996       2.156      5.1525E-03
   6    9.999       9.578       9.000       8.107       6.877       6.393       5.475       4.035       2.166      5.1766E-03
   7    9.999       9.626       9.149       8.483       7.630       6.778       5.631       4.090       2.183      5.2172E-03
   8    9.999       9.660       9.241       8.673       7.919       6.971       5.727       4.130       2.196      5.2490E-03
   9    9.999       9.679       9.286       8.754       8.027       7.054       5.773       4.151       2.204      5.2669E-03
  10    9.999       9.686       9.302       8.783       8.062       7.082       5.790       4.159       2.207      5.2742E-03
1
              HEAD IN LAYER   5 AT END OF TIME STEP  42 IN STRESS PERIOD    3
  ---------------------------------------------------------------------------

            1           2           3           4           5           6           7           8           9          10
 ........................................................................................................................
   1    9.999       9.673       9.274       8.735       8.004       7.033       5.758       4.141       2.198      5.2627E-03
   2    9.999       9.657       9.235       8.664       7.908       6.961       5.718       4.123       2.192      5.2477E-03
   3    9.999       9.624       9.144       8.476       7.622       6.769       5.623       4.084       2.179      5.2167E-03
   4    9.999       9.575       8.996       8.100       6.873       6.385       5.468       4.029       2.162      5.1761E-03
   5    9.999       9.542       8.865       7.604       5.085       5.873       5.330       3.990       2.152      5.1520E-03
   6    9.999       9.576       8.996       8.101       6.873       6.385       5.468       4.029       2.162      5.1763E-03
   7    9.999       9.624       9.145       8.478       7.624       6.771       5.625       4.085       2.179      5.2173E-03
   8    9.999       9.659       9.238       8.669       7.914       6.966       5.721       4.125       2.193      5.2495E-03
   9    9.999       9.677       9.284       8.751       8.022       7.049       5.768       4.146       2.200      5.2677E-03
  10    9.999       9.685       9.300       8.779       8.058       7.077       5.785       4.155       2.203      5.2751E-03

 HEAD WILL BE SAVED ON UNIT   51 AT END OF TIME STEP   42, STRESS PERIOD    3

 DRAWDOWN WILL BE SAVED ON UNIT   52 AT END OF TIME STEP   42, STRESS PERIOD    3
1
  VOLUMETRIC BUDGET FOR ENTIRE MODEL AT END OF TIME STEP   42, STRESS PERIOD   3
  ------------------------------------------------------------------------------

     CUMULATIVE VOLUMES      L**3       RATES FOR THIS TIME STEP      L**3/T
     ------------------                 ------------------------

           IN:                                      IN:
           ---                                      ---
             STORAGE =      382909.1875               STORAGE =        1391.9529
       CONSTANT HEAD =           0.0000         CONSTANT HEAD =           0.0000
               WELLS =           0.0000                 WELLS =           0.0000
     HEAD DEP BOUNDS =        8636.6211       HEAD DEP BOUNDS =         217.6108

            TOTAL IN =      391545.8125              TOTAL IN =        1609.5637

          OUT:                                     OUT:
          ----                                     ----
             STORAGE =           0.0000               STORAGE =           0.0000
       CONSTANT HEAD =           0.0000         CONSTANT HEAD =           0.0000
               WELLS =       21000.0000                 WELLS =         500.0000
     HEAD DEP BOUNDS =      370546.5938       HEAD DEP BOUNDS =        1109.5634

           TOTAL OUT =      391546.5938             TOTAL OUT =        1609.5634

            IN - OUT =          -0.7812              IN - OUT =       3.6621E-04

 PERCENT DISCREPANCY =          -0.00     PERCENT DISCREPANCY =           0.00






         TIME SUMMARY AT END OF TIME STEP   42 IN STRESS PERIOD    3
                    SECONDS     MINUTES      HOURS       DAYS        YEARS
                    -----------------------------------------------------------
   TIME STEP LENGTH  86400.      1440.0      24.000      1.0000     2.73785E-03
 STRESS PERIOD TIME 3.62880E+06  60480.      1008.0      42.000     0.11499    
         TOTAL TIME 1.23552E+07 2.05920E+05  3432.0      143.00     0.39151    
1
 
 SOLVING FOR HEAD 

 OUTPUT CONTROL FOR STRESS PERIOD    3   TIME STEP   43
    SAVE HEAD FOR ALL LAYERS
    SAVE DRAWDOWN FOR ALL LAYERS
    SAVE BUDGET
    PRINT HEAD FOR ALL LAYERS
    PRINT BUDGET
 UBDSV1 SAVING "         STORAGE" ON UNIT  53 AT TIME STEP 43, STRESS PERIOD   3
 UBDSV2 SAVING "   CONSTANT HEAD" ON UNIT  53 AT TIME STEP 43, STRESS PERIOD   3
 UBDSV1 SAVING "FLOW RIGHT FACE " ON UNIT  53 AT TIME STEP 43, STRESS PERIOD   3
 UBDSV1 SAVING "FLOW FRONT FACE " ON UNIT  53 AT TIME STEP 43, STRESS PERIOD   3
 UBDSV1 SAVING "FLOW LOWER FACE " ON UNIT  53 AT TIME STEP 43, STRESS PERIOD   3
1
              HEAD IN LAYER   1 AT END OF TIME STEP  43 IN STRESS PERIOD    3
  ---------------------------------------------------------------------------

            1           2           3           4           5           6           7           8           9          10
 ........................................................................................................................
   1    9.999       9.680       9.288       8.756       8.031       7.063       5.788       4.169       2.221      1.9672E-03
   2    9.999       9.665       9.251       8.688       7.937       6.993       5.750       4.153       2.215      1.9615E-03
   3    9.999       9.633       9.164       8.506       7.658       6.807       5.659       4.115       2.203      1.9497E-03
   4    9.999       9.587       9.020       8.137       6.899       6.427       5.507       4.062       2.187      1.9338E-03
   5    9.999       9.554       8.891       7.630       4.074       5.897       5.370       4.024       2.177      1.9242E-03
   6    9.999       9.587       9.020       8.137       6.899       6.428       5.507       4.062       2.187      1.9338E-03
   7    9.999       9.634       9.165       8.507       7.660       6.809       5.660       4.116       2.203      1.9498E-03
   8    9.999       9.667       9.254       8.692       7.943       6.998       5.753       4.154       2.216      1.9623E-03
   9    9.999       9.684       9.297       8.771       8.048       7.077       5.797       4.174       2.223      1.9691E-03
  10    9.999       9.691       9.313       8.798       8.081       7.104       5.814       4.182       2.226      1.9720E-03
1
              HEAD IN LAYER   2 AT END OF TIME STEP  43 IN STRESS PERIOD    3
  ---------------------------------------------------------------------------

            1           2           3           4           5           6           7           8           9          10
 ........................................................................................................................
   1    9.999       9.675       9.278       8.743       8.014       7.045       5.771       4.155       2.211      4.6287E-03
   2    9.999       9.660       9.240       8.672       7.919       6.974       5.732       4.138       2.205      4.6158E-03
   3    9.999       9.627       9.151       8.487       7.635       6.784       5.639       4.100       2.193      4.5889E-03
   4    9.999       9.579       9.004       8.113       6.873       6.401       5.485       4.045       2.176      4.5535E-03
   5    9.999       9.546       8.874       7.605       4.422       5.872       5.346       4.006       2.166      4.5323E-03
   6    9.999       9.579       9.004       8.114       6.874       6.401       5.485       4.045       2.176      4.5537E-03
   7    9.999       9.627       9.152       8.488       7.637       6.786       5.640       4.100       2.193      4.5894E-03
   8    9.999       9.662       9.244       8.677       7.924       6.978       5.735       4.139       2.206      4.6173E-03
   9    9.999       9.680       9.288       8.758       8.032       7.060       5.781       4.160       2.213      4.6329E-03
  10    9.999       9.687       9.304       8.786       8.067       7.088       5.798       4.168       2.216      4.6394E-03
1
              HEAD IN LAYER   3 AT END OF TIME STEP  43 IN STRESS PERIOD    3
  ---------------------------------------------------------------------------

            1           2           3           4           5           6           7           8           9          10
 ........................................................................................................................
   1    9.999       9.671       9.271       8.732       8.000       7.029       5.755       4.141       2.201      5.1856E-03
   2    9.999       9.656       9.232       8.660       7.903       6.957       5.715       4.123       2.194      5.1707E-03
   3    9.999       9.622       9.141       8.471       7.616       6.764       5.620       4.084       2.181      5.1397E-03
   4    9.999       9.573       8.992       8.095       6.856       6.378       5.464       4.028       2.164      5.0992E-03
   5    9.999       9.540       8.861       7.589       4.746       5.855       5.325       3.989       2.154      5.0752E-03
   6    9.999       9.574       8.992       8.095       6.857       6.379       5.464       4.028       2.164      5.0994E-03
   7    9.999       9.623       9.142       8.473       7.618       6.766       5.621       4.084       2.181      5.1403E-03
   8    9.999       9.658       9.236       8.665       7.909       6.962       5.719       4.125       2.195      5.1725E-03
   9    9.999       9.676       9.281       8.748       8.019       7.045       5.766       4.146       2.203      5.1906E-03
  10    9.999       9.683       9.298       8.776       8.054       7.074       5.783       4.155       2.206      5.1981E-03
1
              HEAD IN LAYER   4 AT END OF TIME STEP  43 IN STRESS PERIOD    3
  ---------------------------------------------------------------------------

            1           2           3           4           5           6           7           8           9          10
 ........................................................................................................................
   1    9.999       9.669       9.266       8.725       7.991       7.019       5.745       4.131       2.193      5.2424E-03
   2    9.999       9.653       9.227       8.652       7.893       6.945       5.704       4.113       2.187      5.2269E-03
   3    9.999       9.619       9.134       8.461       7.604       6.751       5.608       4.073       2.174      5.1949E-03
   4    9.999       9.570       8.984       8.082       6.847       6.363       5.450       4.016       2.156      5.1532E-03
   5    9.999       9.536       8.852       7.581       4.951       5.846       5.311       3.977       2.146      5.1285E-03
   6    9.999       9.570       8.984       8.083       6.848       6.363       5.451       4.017       2.156      5.1534E-03
   7    9.999       9.619       9.135       8.463       7.606       6.753       5.609       4.074       2.174      5.1955E-03
   8    9.999       9.655       9.230       8.657       7.899       6.951       5.708       4.115       2.188      5.2288E-03
   9    9.999       9.674       9.277       8.741       8.010       7.035       5.755       4.137       2.196      5.2477E-03
  10    9.999       9.681       9.294       8.770       8.046       7.065       5.773       4.146       2.199      5.2555E-03
1
              HEAD IN LAYER   5 AT END OF TIME STEP  43 IN STRESS PERIOD    3
  ---------------------------------------------------------------------------

            1           2           3           4           5           6           7           8           9          10
 ........................................................................................................................
   1    9.999       9.668       9.264       8.721       7.986       7.014       5.740       4.127       2.190      5.2431E-03
   2    9.999       9.652       9.224       8.648       7.888       6.940       5.699       4.108       2.183      5.2274E-03
   3    9.999       9.617       9.131       8.456       7.597       6.745       5.602       4.068       2.170      5.1950E-03
   4    9.999       9.568       8.980       8.076       6.843       6.356       5.443       4.011       2.152      5.1529E-03
   5    9.999       9.534       8.848       7.578       5.051       5.842       5.304       3.972       2.142      5.1281E-03
   6    9.999       9.568       8.980       8.077       6.844       6.356       5.444       4.011       2.152      5.1531E-03
   7    9.999       9.618       9.132       8.458       7.599       6.746       5.603       4.069       2.170      5.1956E-03
   8    9.999       9.654       9.228       8.653       7.894       6.945       5.702       4.110       2.184      5.2293E-03
   9    9.999       9.673       9.274       8.737       8.006       7.030       5.750       4.132       2.192      5.2485E-03
  10    9.999       9.680       9.292       8.767       8.042       7.060       5.768       4.141       2.195      5.2564E-03

 HEAD WILL BE SAVED ON UNIT   51 AT END OF TIME STEP   43, STRESS PERIOD    3

 DRAWDOWN WILL BE SAVED ON UNIT   52 AT END OF TIME STEP   43, STRESS PERIOD    3
1
  VOLUMETRIC BUDGET FOR ENTIRE MODEL AT END OF TIME STEP   43, STRESS PERIOD   3
  ------------------------------------------------------------------------------

     CUMULATIVE VOLUMES      L**3       RATES FOR THIS TIME STEP      L**3/T
     ------------------                 ------------------------

           IN:                                      IN:
           ---                                      ---
             STORAGE =      384292.9062               STORAGE =        1383.7292
       CONSTANT HEAD =           0.0000         CONSTANT HEAD =           0.0000
               WELLS =           0.0000                 WELLS =           0.0000
     HEAD DEP BOUNDS =        8857.9219       HEAD DEP BOUNDS =         221.3005

            TOTAL IN =      393150.8125              TOTAL IN =        1605.0298

          OUT:                                     OUT:
          ----                                     ----
             STORAGE =           0.0000               STORAGE =           0.0000
       CONSTANT HEAD =           0.0000         CONSTANT HEAD =           0.0000
               WELLS =       21500.0000                 WELLS =         500.0000
     HEAD DEP BOUNDS =      371651.5938       HEAD DEP BOUNDS =        1105.0132

           TOTAL OUT =      393151.5938             TOTAL OUT =        1605.0132

            IN - OUT =          -0.7812              IN - OUT =       1.6602E-02

 PERCENT DISCREPANCY =          -0.00     PERCENT DISCREPANCY =           0.00






         TIME SUMMARY AT END OF TIME STEP   43 IN STRESS PERIOD    3
                    SECONDS     MINUTES      HOURS       DAYS        YEARS
                    -----------------------------------------------------------
   TIME STEP LENGTH  86400.      1440.0      24.000      1.0000     2.73785E-03
 STRESS PERIOD TIME 3.71520E+06  61920.      1032.0      43.000     0.11773    
         TOTAL TIME 1.24416E+07 2.07360E+05  3456.0      144.00     0.39425    
1
 
 SOLVING FOR HEAD 

 OUTPUT CONTROL FOR STRESS PERIOD    3   TIME STEP   44
    SAVE HEAD FOR ALL LAYERS
    SAVE DRAWDOWN FOR ALL LAYERS
    SAVE BUDGET
    PRINT HEAD FOR ALL LAYERS
    PRINT BUDGET
 UBDSV1 SAVING "         STORAGE" ON UNIT  53 AT TIME STEP 44, STRESS PERIOD   3
 UBDSV2 SAVING "   CONSTANT HEAD" ON UNIT  53 AT TIME STEP 44, STRESS PERIOD   3
 UBDSV1 SAVING "FLOW RIGHT FACE " ON UNIT  53 AT TIME STEP 44, STRESS PERIOD   3
 UBDSV1 SAVING "FLOW FRONT FACE " ON UNIT  53 AT TIME STEP 44, STRESS PERIOD   3
 UBDSV1 SAVING "FLOW LOWER FACE " ON UNIT  53 AT TIME STEP 44, STRESS PERIOD   3
1
              HEAD IN LAYER   1 AT END OF TIME STEP  44 IN STRESS PERIOD    3
  ---------------------------------------------------------------------------

            1           2           3           4           5           6           7           8           9          10
 ........................................................................................................................
   1    9.999       9.675       9.278       8.742       8.013       7.044       5.770       4.155       2.213      1.9594E-03
   2    9.999       9.660       9.240       8.671       7.917       6.972       5.731       4.137       2.207      1.9533E-03
   3    9.999       9.627       9.150       8.486       7.634       6.782       5.637       4.099       2.194      1.9407E-03
   4    9.999       9.579       9.004       8.112       6.869       6.398       5.482       4.043       2.177      1.9243E-03
   5    9.999       9.546       8.874       7.603       4.039       5.864       5.343       4.005       2.166      1.9146E-03
   6    9.999       9.579       9.004       8.113       6.869       6.398       5.482       4.044       2.177      1.9243E-03
   7    9.999       9.627       9.151       8.487       7.635       6.784       5.638       4.099       2.194      1.9410E-03
   8    9.999       9.661       9.243       8.676       7.923       6.977       5.734       4.139       2.207      1.9541E-03
   9    9.999       9.679       9.287       8.757       8.031       7.059       5.780       4.160       2.215      1.9614E-03
  10    9.999       9.686       9.304       8.785       8.066       7.087       5.797       4.168       2.218      1.9644E-03
1
              HEAD IN LAYER   2 AT END OF TIME STEP  44 IN STRESS PERIOD    3
  ---------------------------------------------------------------------------

            1           2           3           4           5           6           7           8           9          10
 ........................................................................................................................
   1    9.999       9.670       9.268       8.728       7.996       7.026       5.753       4.141       2.203      4.6113E-03
   2    9.999       9.654       9.229       8.656       7.898       6.952       5.712       4.123       2.197      4.5977E-03
   3    9.999       9.620       9.137       8.467       7.611       6.759       5.617       4.083       2.183      4.5695E-03
   4    9.999       9.571       8.988       8.089       6.843       6.372       5.460       4.026       2.166      4.5329E-03
   5    9.999       9.538       8.857       7.578       4.387       5.840       5.320       3.988       2.156      4.5111E-03
   6    9.999       9.572       8.988       8.090       6.844       6.372       5.460       4.027       2.166      4.5330E-03
   7    9.999       9.621       9.138       8.468       7.613       6.761       5.618       4.084       2.184      4.5701E-03
   8    9.999       9.656       9.233       8.661       7.905       6.958       5.716       4.125       2.197      4.5994E-03
   9    9.999       9.675       9.279       8.744       8.015       7.042       5.763       4.146       2.205      4.6159E-03
  10    9.999       9.682       9.296       8.773       8.051       7.071       5.781       4.155       2.208      4.6227E-03
1
              HEAD IN LAYER   3 AT END OF TIME STEP  44 IN STRESS PERIOD    3
  ---------------------------------------------------------------------------

            1           2           3           4           5           6           7           8           9          10
 ........................................................................................................................
   1    9.999       9.667       9.261       8.717       7.982       7.010       5.737       4.127       2.192      5.1663E-03
   2    9.999       9.650       9.221       8.643       7.883       6.935       5.696       4.108       2.186      5.1506E-03
   3    9.999       9.615       9.127       8.451       7.592       6.740       5.598       4.067       2.172      5.1182E-03
   4    9.999       9.566       8.976       8.071       6.827       6.349       5.439       4.010       2.154      5.0763E-03
   5    9.999       9.532       8.844       7.563       4.712       5.823       5.299       3.970       2.144      5.0516E-03
   6    9.999       9.566       8.976       8.071       6.827       6.349       5.440       4.010       2.154      5.0765E-03
   7    9.999       9.616       9.128       8.453       7.594       6.741       5.599       4.068       2.172      5.1189E-03
   8    9.999       9.652       9.225       8.649       7.889       6.941       5.700       4.110       2.187      5.1526E-03
   9    9.999       9.671       9.272       8.734       8.002       7.027       5.748       4.132       2.195      5.1717E-03
  10    9.999       9.679       9.290       8.764       8.039       7.057       5.766       4.141       2.198      5.1797E-03
1
              HEAD IN LAYER   4 AT END OF TIME STEP  44 IN STRESS PERIOD    3
  ---------------------------------------------------------------------------

            1           2           3           4           5           6           7           8           9          10
 ........................................................................................................................
   1    9.999       9.664       9.256       8.710       7.973       7.000       5.727       4.117       2.185      5.2229E-03
   2    9.999       9.648       9.215       8.635       7.873       6.924       5.685       4.098       2.178      5.2066E-03
   3    9.999       9.612       9.121       8.441       7.579       6.726       5.586       4.057       2.164      5.1732E-03
   4    9.999       9.562       8.968       8.058       6.818       6.334       5.426       3.999       2.146      5.1301E-03
   5    9.999       9.527       8.835       7.555       4.918       5.814       5.285       3.959       2.136      5.1048E-03
   6    9.999       9.562       8.968       8.059       6.818       6.334       5.426       3.999       2.146      5.1303E-03
   7    9.999       9.613       9.122       8.443       7.581       6.728       5.587       4.057       2.165      5.1739E-03
   8    9.999       9.650       9.219       8.641       7.879       6.930       5.689       4.100       2.179      5.2087E-03
   9    9.999       9.669       9.267       8.727       7.993       7.017       5.738       4.123       2.188      5.2286E-03
  10    9.999       9.677       9.285       8.758       8.031       7.048       5.757       4.132       2.191      5.2369E-03
1
              HEAD IN LAYER   5 AT END OF TIME STEP  44 IN STRESS PERIOD    3
  ---------------------------------------------------------------------------

            1           2           3           4           5           6           7           8           9          10
 ........................................................................................................................
   1    9.999       9.663       9.254       8.706       7.968       6.995       5.722       4.113       2.182      5.2237E-03
   2    9.999       9.646       9.213       8.631       7.867       6.918       5.679       4.093       2.175      5.2071E-03
   3    9.999       9.611       9.117       8.436       7.573       6.720       5.580       4.052       2.161      5.1733E-03
   4    9.999       9.560       8.964       8.052       6.814       6.327       5.419       3.993       2.142      5.1298E-03
   5    9.999       9.525       8.831       7.552       5.018       5.810       5.278       3.953       2.132      5.1043E-03
   6    9.999       9.560       8.964       8.053       6.815       6.327       5.419       3.993       2.143      5.1300E-03
   7    9.999       9.611       9.118       8.438       7.575       6.722       5.581       4.052       2.161      5.1741E-03
   8    9.999       9.648       9.217       8.637       7.874       6.924       5.683       4.095       2.176      5.2093E-03
   9    9.999       9.668       9.265       8.724       7.989       7.012       5.733       4.119       2.184      5.2295E-03
  10    9.999       9.676       9.283       8.754       8.027       7.043       5.752       4.128       2.188      5.2379E-03

 HEAD WILL BE SAVED ON UNIT   51 AT END OF TIME STEP   44, STRESS PERIOD    3

 DRAWDOWN WILL BE SAVED ON UNIT   52 AT END OF TIME STEP   44, STRESS PERIOD    3
1
  VOLUMETRIC BUDGET FOR ENTIRE MODEL AT END OF TIME STEP   44, STRESS PERIOD   3
  ------------------------------------------------------------------------------

     CUMULATIVE VOLUMES      L**3       RATES FOR THIS TIME STEP      L**3/T
     ------------------                 ------------------------

           IN:                                      IN:
           ---                                      ---
             STORAGE =      385668.4375               STORAGE =        1375.5286
       CONSTANT HEAD =           0.0000         CONSTANT HEAD =           0.0000
               WELLS =           0.0000                 WELLS =           0.0000
     HEAD DEP BOUNDS =        9082.8867       HEAD DEP BOUNDS =         224.9647

            TOTAL IN =      394751.3125              TOTAL IN =        1600.4933

          OUT:                                     OUT:
          ----                                     ----
             STORAGE =           0.0000               STORAGE =           0.0000
       CONSTANT HEAD =           0.0000         CONSTANT HEAD =           0.0000
               WELLS =       22000.0000                 WELLS =         500.0000
     HEAD DEP BOUNDS =      372752.0938       HEAD DEP BOUNDS =        1100.4924

           TOTAL OUT =      394752.0938             TOTAL OUT =        1600.4924

            IN - OUT =          -0.7812              IN - OUT =       8.5449E-04

 PERCENT DISCREPANCY =          -0.00     PERCENT DISCREPANCY =           0.00






         TIME SUMMARY AT END OF TIME STEP   44 IN STRESS PERIOD    3
                    SECONDS     MINUTES      HOURS       DAYS        YEARS
                    -----------------------------------------------------------
   TIME STEP LENGTH  86400.      1440.0      24.000      1.0000     2.73785E-03
 STRESS PERIOD TIME 3.80160E+06  63360.      1056.0      44.000     0.12047    
         TOTAL TIME 1.25280E+07 2.08800E+05  3480.0      145.00     0.39699    
1
 
 SOLVING FOR HEAD 

 OUTPUT CONTROL FOR STRESS PERIOD    3   TIME STEP   45
    SAVE HEAD FOR ALL LAYERS
    SAVE DRAWDOWN FOR ALL LAYERS
    SAVE BUDGET
    PRINT HEAD FOR ALL LAYERS
    PRINT BUDGET
 UBDSV1 SAVING "         STORAGE" ON UNIT  53 AT TIME STEP 45, STRESS PERIOD   3
 UBDSV2 SAVING "   CONSTANT HEAD" ON UNIT  53 AT TIME STEP 45, STRESS PERIOD   3
 UBDSV1 SAVING "FLOW RIGHT FACE " ON UNIT  53 AT TIME STEP 45, STRESS PERIOD   3
 UBDSV1 SAVING "FLOW FRONT FACE " ON UNIT  53 AT TIME STEP 45, STRESS PERIOD   3
 UBDSV1 SAVING "FLOW LOWER FACE " ON UNIT  53 AT TIME STEP 45, STRESS PERIOD   3
1
              HEAD IN LAYER   1 AT END OF TIME STEP  45 IN STRESS PERIOD    3
  ---------------------------------------------------------------------------

            1           2           3           4           5           6           7           8           9          10
 ........................................................................................................................
   1    9.999       9.670       9.268       8.727       7.995       7.025       5.752       4.141       2.205      1.9515E-03
   2    9.999       9.654       9.229       8.655       7.897       6.951       5.711       4.122       2.198      1.9450E-03
   3    9.999       9.620       9.137       8.466       7.609       6.757       5.615       4.082       2.184      1.9319E-03
   4    9.999       9.571       8.988       8.088       6.839       6.368       5.457       4.025       2.167      1.9150E-03
   5    9.999       9.538       8.857       7.577       4.005       5.832       5.317       3.986       2.156      1.9049E-03
   6    9.999       9.571       8.988       8.089       6.840       6.369       5.457       4.025       2.167      1.9150E-03
   7    9.999       9.621       9.138       8.467       7.611       6.759       5.616       4.083       2.185      1.9321E-03
   8    9.999       9.656       9.232       8.660       7.903       6.956       5.715       4.124       2.199      1.9458E-03
   9    9.999       9.675       9.278       8.743       8.014       7.041       5.763       4.146       2.207      1.9536E-03
  10    9.999       9.682       9.296       8.773       8.050       7.070       5.780       4.155       2.210      1.9568E-03
1
              HEAD IN LAYER   2 AT END OF TIME STEP  45 IN STRESS PERIOD    3
  ---------------------------------------------------------------------------

            1           2           3           4           5           6           7           8           9          10
 ........................................................................................................................
   1    9.999       9.665       9.258       8.714       7.978       7.007       5.735       4.126       2.195      4.5940E-03
   2    9.999       9.649       9.218       8.639       7.878       6.931       5.693       4.108       2.188      4.5797E-03
   3    9.999       9.614       9.124       8.447       7.586       6.734       5.595       4.067       2.174      4.5503E-03
   4    9.999       9.564       8.972       8.065       6.814       6.342       5.435       4.009       2.156      4.5124E-03
   5    9.999       9.530       8.840       7.552       4.353       5.808       5.294       3.969       2.146      4.4900E-03
   6    9.999       9.564       8.972       8.066       6.814       6.343       5.435       4.009       2.156      4.5125E-03
   7    9.999       9.614       9.125       8.448       7.588       6.736       5.596       4.067       2.175      4.5509E-03
   8    9.999       9.651       9.222       8.645       7.885       6.937       5.697       4.110       2.189      4.5815E-03
   9    9.999       9.670       9.269       8.731       7.998       7.023       5.746       4.132       2.197      4.5990E-03
  10    9.999       9.678       9.287       8.761       8.035       7.054       5.764       4.141       2.201      4.6062E-03
1
              HEAD IN LAYER   3 AT END OF TIME STEP  45 IN STRESS PERIOD    3
  ---------------------------------------------------------------------------

            1           2           3           4           5           6           7           8           9          10
 ........................................................................................................................
   1    9.999       9.662       9.251       8.703       7.964       6.991       5.719       4.112       2.184      5.1471E-03
   2    9.999       9.645       9.210       8.627       7.863       6.914       5.677       4.093       2.177      5.1306E-03
   3    9.999       9.609       9.114       8.432       7.568       6.715       5.576       4.051       2.163      5.0969E-03
   4    9.999       9.558       8.960       8.047       6.797       6.320       5.415       3.992       2.145      5.0535E-03
   5    9.999       9.523       8.827       7.537       4.678       5.792       5.273       3.952       2.134      5.0281E-03
   6    9.999       9.558       8.960       8.047       6.798       6.321       5.415       3.992       2.145      5.0537E-03
   7    9.999       9.609       9.115       8.433       7.570       6.717       5.578       4.052       2.163      5.0976E-03
   8    9.999       9.647       9.214       8.633       7.870       6.920       5.681       4.095       2.178      5.1327E-03
   9    9.999       9.667       9.262       8.720       7.985       7.009       5.731       4.118       2.187      5.1529E-03
  10    9.999       9.675       9.281       8.751       8.023       7.040       5.750       4.128       2.190      5.1614E-03
1
              HEAD IN LAYER   4 AT END OF TIME STEP  45 IN STRESS PERIOD    3
  ---------------------------------------------------------------------------

            1           2           3           4           5           6           7           8           9          10
 ........................................................................................................................
   1    9.999       9.659       9.246       8.696       7.955       6.981       5.709       4.103       2.177      5.2036E-03
   2    9.999       9.642       9.204       8.619       7.853       6.903       5.666       4.083       2.170      5.1865E-03
   3    9.999       9.606       9.107       8.421       7.555       6.702       5.564       4.040       2.155      5.1517E-03
   4    9.999       9.554       8.952       8.035       6.789       6.305       5.401       3.981       2.137      5.1071E-03
   5    9.999       9.519       8.818       7.529       4.885       5.783       5.259       3.940       2.126      5.0811E-03
   6    9.999       9.554       8.952       8.035       6.789       6.306       5.402       3.981       2.137      5.1073E-03
   7    9.999       9.606       9.108       8.423       7.558       6.704       5.566       4.041       2.156      5.1525E-03
   8    9.999       9.644       9.208       8.625       7.860       6.909       5.670       4.085       2.171      5.1888E-03
   9    9.999       9.665       9.258       8.714       7.976       6.999       5.721       4.109       2.180      5.2097E-03
  10    9.999       9.673       9.277       8.745       8.015       7.031       5.740       4.119       2.183      5.2185E-03
1
              HEAD IN LAYER   5 AT END OF TIME STEP  45 IN STRESS PERIOD    3
  ---------------------------------------------------------------------------

            1           2           3           4           5           6           7           8           9          10
 ........................................................................................................................
   1    9.999       9.658       9.244       8.692       7.951       6.976       5.704       4.098       2.174      5.2043E-03
   2    9.999       9.641       9.201       8.615       7.847       6.897       5.660       4.078       2.166      5.1870E-03
   3    9.999       9.604       9.104       8.416       7.549       6.695       5.558       4.035       2.152      5.1518E-03
   4    9.999       9.552       8.948       8.029       6.785       6.298       5.394       3.975       2.133      5.1068E-03
   5    9.999       9.517       8.814       7.526       4.985       5.780       5.252       3.935       2.122      5.0807E-03
   6    9.999       9.552       8.948       8.029       6.786       6.298       5.395       3.975       2.133      5.1071E-03
   7    9.999       9.605       9.105       8.418       7.551       6.697       5.559       4.036       2.152      5.1526E-03
   8    9.999       9.643       9.206       8.621       7.855       6.904       5.664       4.081       2.167      5.1893E-03
   9    9.999       9.663       9.256       8.710       7.972       6.994       5.716       4.105       2.176      5.2106E-03
  10    9.999       9.672       9.275       8.742       8.011       7.026       5.736       4.114       2.180      5.2195E-03

 HEAD WILL BE SAVED ON UNIT   51 AT END OF TIME STEP   45, STRESS PERIOD    3

 DRAWDOWN WILL BE SAVED ON UNIT   52 AT END OF TIME STEP   45, STRESS PERIOD    3
1
  VOLUMETRIC BUDGET FOR ENTIRE MODEL AT END OF TIME STEP   45, STRESS PERIOD   3
  ------------------------------------------------------------------------------

     CUMULATIVE VOLUMES      L**3       RATES FOR THIS TIME STEP      L**3/T
     ------------------                 ------------------------

           IN:                                      IN:
           ---                                      ---
             STORAGE =      387035.7812               STORAGE =        1367.3508
       CONSTANT HEAD =           0.0000         CONSTANT HEAD =           0.0000
               WELLS =           0.0000                 WELLS =           0.0000
     HEAD DEP BOUNDS =        9311.5303       HEAD DEP BOUNDS =         228.6436

            TOTAL IN =      396347.3125              TOTAL IN =        1595.9944

          OUT:                                     OUT:
          ----                                     ----
             STORAGE =           0.0000               STORAGE =           0.0000
       CONSTANT HEAD =           0.0000         CONSTANT HEAD =           0.0000
               WELLS =       22500.0000                 WELLS =         500.0000
     HEAD DEP BOUNDS =      373848.0938       HEAD DEP BOUNDS =        1095.9951

           TOTAL OUT =      396348.0938             TOTAL OUT =        1595.9951

            IN - OUT =          -0.7812              IN - OUT =      -7.3242E-04

 PERCENT DISCREPANCY =          -0.00     PERCENT DISCREPANCY =          -0.00






         TIME SUMMARY AT END OF TIME STEP   45 IN STRESS PERIOD    3
                    SECONDS     MINUTES      HOURS       DAYS        YEARS
                    -----------------------------------------------------------
   TIME STEP LENGTH  86400.      1440.0      24.000      1.0000     2.73785E-03
 STRESS PERIOD TIME 3.88800E+06  64800.      1080.0      45.000     0.12320    
         TOTAL TIME 1.26144E+07 2.10240E+05  3504.0      146.00     0.39973    
1
 
 SOLVING FOR HEAD 

 OUTPUT CONTROL FOR STRESS PERIOD    3   TIME STEP   46
    SAVE HEAD FOR ALL LAYERS
    SAVE DRAWDOWN FOR ALL LAYERS
    SAVE BUDGET
    PRINT HEAD FOR ALL LAYERS
    PRINT BUDGET
 UBDSV1 SAVING "         STORAGE" ON UNIT  53 AT TIME STEP 46, STRESS PERIOD   3
 UBDSV2 SAVING "   CONSTANT HEAD" ON UNIT  53 AT TIME STEP 46, STRESS PERIOD   3
 UBDSV1 SAVING "FLOW RIGHT FACE " ON UNIT  53 AT TIME STEP 46, STRESS PERIOD   3
 UBDSV1 SAVING "FLOW FRONT FACE " ON UNIT  53 AT TIME STEP 46, STRESS PERIOD   3
 UBDSV1 SAVING "FLOW LOWER FACE " ON UNIT  53 AT TIME STEP 46, STRESS PERIOD   3
1
              HEAD IN LAYER   1 AT END OF TIME STEP  46 IN STRESS PERIOD    3
  ---------------------------------------------------------------------------

            1           2           3           4           5           6           7           8           9          10
 ........................................................................................................................
   1    9.999       9.665       9.258       8.713       7.977       7.005       5.734       4.126       2.196      1.9435E-03
   2    9.999       9.649       9.217       8.639       7.877       6.930       5.692       4.107       2.189      1.9367E-03
   3    9.999       9.613       9.123       8.446       7.585       6.732       5.593       4.066       2.175      1.9233E-03
   4    9.999       9.564       8.972       8.064       6.810       6.339       5.432       4.007       2.157      1.9056E-03
   5    9.999       9.529       8.840       7.551       3.971       5.801       5.291       3.967       2.146      1.8952E-03
   6    9.999       9.564       8.972       8.065       6.810       6.340       5.433       4.007       2.157      1.9057E-03
   7    9.999       9.614       9.124       8.447       7.587       6.734       5.594       4.066       2.176      1.9235E-03
   8    9.999       9.651       9.221       8.644       7.884       6.935       5.696       4.109       2.190      1.9376E-03
   9    9.999       9.670       9.269       8.730       7.997       7.022       5.745       4.132       2.199      1.9459E-03
  10    9.999       9.678       9.287       8.760       8.035       7.053       5.764       4.141       2.202      1.9493E-03
1
              HEAD IN LAYER   2 AT END OF TIME STEP  46 IN STRESS PERIOD    3
  ---------------------------------------------------------------------------

            1           2           3           4           5           6           7           8           9          10
 ........................................................................................................................
   1    9.999       9.660       9.248       8.699       7.960       6.987       5.717       4.112       2.187      4.5768E-03
   2    9.999       9.643       9.207       8.623       7.858       6.910       5.674       4.093       2.180      4.5617E-03
   3    9.999       9.607       9.110       8.427       7.562       6.710       5.573       4.050       2.165      4.5312E-03
   4    9.999       9.556       8.956       8.042       6.785       6.314       5.411       3.991       2.147      4.4919E-03
   5    9.999       9.521       8.823       7.527       4.319       5.777       5.268       3.950       2.136      4.4690E-03
   6    9.999       9.556       8.957       8.042       6.785       6.314       5.411       3.991       2.147      4.4921E-03
   7    9.999       9.608       9.112       8.429       7.564       6.712       5.574       4.051       2.165      4.5319E-03
   8    9.999       9.645       9.211       8.629       7.865       6.916       5.678       4.095       2.181      4.5637E-03
   9    9.999       9.666       9.260       8.717       7.981       7.005       5.729       4.118       2.189      4.5821E-03
  10    9.999       9.674       9.279       8.748       8.020       7.037       5.748       4.128       2.193      4.5898E-03
1
              HEAD IN LAYER   3 AT END OF TIME STEP  46 IN STRESS PERIOD    3
  ---------------------------------------------------------------------------

            1           2           3           4           5           6           7           8           9          10
 ........................................................................................................................
   1    9.999       9.656       9.241       8.688       7.946       6.972       5.702       4.098       2.176      5.1280E-03
   2    9.999       9.639       9.198       8.611       7.843       6.893       5.657       4.078       2.169      5.1107E-03
   3    9.999       9.602       9.100       8.412       7.544       6.690       5.555       4.035       2.154      5.0756E-03
   4    9.999       9.550       8.944       8.023       6.769       6.291       5.390       3.974       2.135      5.0308E-03
   5    9.999       9.515       8.810       7.511       4.645       5.761       5.247       3.933       2.124      5.0048E-03
   6    9.999       9.551       8.945       8.024       6.769       6.292       5.391       3.974       2.135      5.0311E-03
   7    9.999       9.603       9.102       8.414       7.546       6.692       5.556       4.035       2.154      5.0764E-03
   8    9.999       9.641       9.203       8.617       7.850       6.900       5.662       4.080       2.170      5.1131E-03
   9    9.999       9.662       9.253       8.707       7.968       6.991       5.714       4.105       2.179      5.1343E-03
  10    9.999       9.671       9.272       8.739       8.008       7.023       5.734       4.115       2.183      5.1432E-03
1
              HEAD IN LAYER   4 AT END OF TIME STEP  46 IN STRESS PERIOD    3
  ---------------------------------------------------------------------------

            1           2           3           4           5           6           7           8           9          10
 ........................................................................................................................
   1    9.999       9.654       9.236       8.681       7.937       6.962       5.691       4.089       2.169      5.1843E-03
   2    9.999       9.636       9.193       8.602       7.833       6.882       5.646       4.068       2.162      5.1664E-03
   3    9.999       9.599       9.094       8.402       7.531       6.677       5.543       4.024       2.147      5.1302E-03
   4    9.999       9.546       8.936       8.011       6.760       6.277       5.377       3.963       2.127      5.0842E-03
   5    9.999       9.511       8.801       7.504       4.853       5.753       5.234       3.922       2.116      5.0576E-03
   6    9.999       9.547       8.937       8.012       6.761       6.277       5.377       3.963       2.127      5.0845E-03
   7    9.999       9.600       9.095       8.404       7.534       6.679       5.544       4.025       2.147      5.1311E-03
   8    9.999       9.639       9.197       8.609       7.840       6.889       5.651       4.071       2.163      5.1689E-03
   9    9.999       9.660       9.249       8.700       7.959       6.981       5.704       4.096       2.172      5.1909E-03
  10    9.999       9.668       9.268       8.733       8.000       7.014       5.724       4.106       2.176      5.2002E-03
1
              HEAD IN LAYER   5 AT END OF TIME STEP  46 IN STRESS PERIOD    3
  ---------------------------------------------------------------------------

            1           2           3           4           5           6           7           8           9          10
 ........................................................................................................................
   1    9.999       9.653       9.234       8.677       7.933       6.957       5.686       4.084       2.166      5.1851E-03
   2    9.999       9.635       9.190       8.598       7.827       6.877       5.641       4.063       2.158      5.1670E-03
   3    9.999       9.597       9.090       8.397       7.525       6.671       5.536       4.019       2.143      5.1304E-03
   4    9.999       9.545       8.932       8.005       6.757       6.270       5.370       3.957       2.123      5.0840E-03
   5    9.999       9.509       8.797       7.501       4.953       5.749       5.227       3.916       2.112      5.0572E-03
   6    9.999       9.545       8.933       8.006       6.757       6.270       5.371       3.958       2.123      5.0842E-03
   7    9.999       9.598       9.092       8.399       7.528       6.673       5.538       4.020       2.143      5.1313E-03
   8    9.999       9.637       9.195       8.605       7.835       6.883       5.645       4.066       2.159      5.1695E-03
   9    9.999       9.659       9.246       8.697       7.955       6.976       5.699       4.091       2.168      5.1918E-03
  10    9.999       9.667       9.266       8.729       7.996       7.009       5.719       4.101       2.172      5.2012E-03

 HEAD WILL BE SAVED ON UNIT   51 AT END OF TIME STEP   46, STRESS PERIOD    3

 DRAWDOWN WILL BE SAVED ON UNIT   52 AT END OF TIME STEP   46, STRESS PERIOD    3
1
  VOLUMETRIC BUDGET FOR ENTIRE MODEL AT END OF TIME STEP   46, STRESS PERIOD   3
  ------------------------------------------------------------------------------

     CUMULATIVE VOLUMES      L**3       RATES FOR THIS TIME STEP      L**3/T
     ------------------                 ------------------------

           IN:                                      IN:
           ---                                      ---
             STORAGE =      388394.9688               STORAGE =        1359.1997
       CONSTANT HEAD =           0.0000         CONSTANT HEAD =           0.0000
               WELLS =           0.0000                 WELLS =           0.0000
     HEAD DEP BOUNDS =        9543.8525       HEAD DEP BOUNDS =         232.3225

            TOTAL IN =      397938.8125              TOTAL IN =        1591.5222

          OUT:                                     OUT:
          ----                                     ----
             STORAGE =           0.0000               STORAGE =           0.0000
       CONSTANT HEAD =           0.0000         CONSTANT HEAD =           0.0000
               WELLS =       23000.0000                 WELLS =         500.0000
     HEAD DEP BOUNDS =      374939.6250       HEAD DEP BOUNDS =        1091.5225

           TOTAL OUT =      397939.6250             TOTAL OUT =        1591.5225

            IN - OUT =          -0.8125              IN - OUT =      -2.4414E-04

 PERCENT DISCREPANCY =          -0.00     PERCENT DISCREPANCY =          -0.00






         TIME SUMMARY AT END OF TIME STEP   46 IN STRESS PERIOD    3
                    SECONDS     MINUTES      HOURS       DAYS        YEARS
                    -----------------------------------------------------------
   TIME STEP LENGTH  86400.      1440.0      24.000      1.0000     2.73785E-03
 STRESS PERIOD TIME 3.97440E+06  66240.      1104.0      46.000     0.12594    
         TOTAL TIME 1.27008E+07 2.11680E+05  3528.0      147.00     0.40246    
1
 
 SOLVING FOR HEAD 

 OUTPUT CONTROL FOR STRESS PERIOD    3   TIME STEP   47
    SAVE HEAD FOR ALL LAYERS
    SAVE DRAWDOWN FOR ALL LAYERS
    SAVE BUDGET
    PRINT HEAD FOR ALL LAYERS
    PRINT BUDGET
 UBDSV1 SAVING "         STORAGE" ON UNIT  53 AT TIME STEP 47, STRESS PERIOD   3
 UBDSV2 SAVING "   CONSTANT HEAD" ON UNIT  53 AT TIME STEP 47, STRESS PERIOD   3
 UBDSV1 SAVING "FLOW RIGHT FACE " ON UNIT  53 AT TIME STEP 47, STRESS PERIOD   3
 UBDSV1 SAVING "FLOW FRONT FACE " ON UNIT  53 AT TIME STEP 47, STRESS PERIOD   3
 UBDSV1 SAVING "FLOW LOWER FACE " ON UNIT  53 AT TIME STEP 47, STRESS PERIOD   3
1
              HEAD IN LAYER   1 AT END OF TIME STEP  47 IN STRESS PERIOD    3
  ---------------------------------------------------------------------------

            1           2           3           4           5           6           7           8           9          10
 ........................................................................................................................
   1    9.999       9.660       9.248       8.698       7.959       6.986       5.716       4.112       2.188      1.9356E-03
   2    9.999       9.643       9.206       8.622       7.857       6.909       5.673       4.092       2.181      1.9286E-03
   3    9.999       9.607       9.110       8.426       7.561       6.708       5.571       4.049       2.166      1.9145E-03
   4    9.999       9.556       8.956       8.041       6.781       6.310       5.408       3.989       2.147      1.8962E-03
   5    9.999       9.521       8.823       7.525       3.938       5.770       5.265       3.949       2.136      1.8856E-03
   6    9.999       9.556       8.956       8.041       6.781       6.311       5.408       3.990       2.147      1.8963E-03
   7    9.999       9.607       9.111       8.428       7.563       6.710       5.573       4.050       2.167      1.9148E-03
   8    9.999       9.645       9.210       8.628       7.864       6.915       5.677       4.094       2.182      1.9296E-03
   9    9.999       9.665       9.260       8.716       7.980       7.004       5.728       4.118       2.191      1.9381E-03
  10    9.999       9.674       9.278       8.748       8.019       7.036       5.747       4.128       2.194      1.9418E-03
1
              HEAD IN LAYER   2 AT END OF TIME STEP  47 IN STRESS PERIOD    3
  ---------------------------------------------------------------------------

            1           2           3           4           5           6           7           8           9          10
 ........................................................................................................................
   1    9.999       9.655       9.238       8.685       7.942       6.968       5.699       4.098       2.179      4.5596E-03
   2    9.999       9.638       9.196       8.607       7.838       6.889       5.655       4.078       2.171      4.5440E-03
   3    9.999       9.600       9.097       8.407       7.538       6.685       5.551       4.034       2.156      4.5122E-03
   4    9.999       9.548       8.941       8.018       6.756       6.285       5.386       3.973       2.137      4.4716E-03
   5    9.999       9.513       8.806       7.501       4.286       5.747       5.243       3.932       2.126      4.4481E-03
   6    9.999       9.549       8.941       8.019       6.757       6.286       5.387       3.973       2.137      4.4718E-03
   7    9.999       9.601       9.098       8.409       7.541       6.687       5.553       4.035       2.156      4.5129E-03
   8    9.999       9.640       9.200       8.613       7.846       6.896       5.659       4.080       2.172      4.5461E-03
   9    9.999       9.661       9.251       8.703       7.964       6.987       5.712       4.105       2.181      4.5654E-03
  10    9.999       9.669       9.270       8.736       8.004       7.020       5.732       4.115       2.185      4.5735E-03
1
              HEAD IN LAYER   3 AT END OF TIME STEP  47 IN STRESS PERIOD    3
  ---------------------------------------------------------------------------

            1           2           3           4           5           6           7           8           9          10
 ........................................................................................................................
   1    9.999       9.651       9.231       8.674       7.929       6.953       5.684       4.084       2.168      5.1090E-03
   2    9.999       9.634       9.187       8.594       7.823       6.872       5.638       4.063       2.160      5.0909E-03
   3    9.999       9.596       9.087       8.392       7.520       6.666       5.533       4.018       2.145      5.0545E-03
   4    9.999       9.543       8.929       8.000       6.740       6.263       5.366       3.956       2.125      5.0083E-03
   5    9.999       9.507       8.793       7.486       4.613       5.731       5.222       3.915       2.114      4.9816E-03
   6    9.999       9.543       8.929       8.001       6.741       6.264       5.367       3.957       2.125      5.0085E-03
   7    9.999       9.596       9.089       8.394       7.522       6.668       5.535       4.019       2.145      5.0554E-03
   8    9.999       9.636       9.192       8.601       7.831       6.879       5.643       4.066       2.162      5.0935E-03
   9    9.999       9.657       9.244       8.693       7.951       6.973       5.697       4.091       2.171      5.1158E-03
  10    9.999       9.666       9.264       8.726       7.992       7.006       5.717       4.101       2.175      5.1252E-03
1
              HEAD IN LAYER   4 AT END OF TIME STEP  47 IN STRESS PERIOD    3
  ---------------------------------------------------------------------------

            1           2           3           4           5           6           7           8           9          10
 ........................................................................................................................
   1    9.999       9.649       9.226       8.666       7.919       6.943       5.673       4.075       2.161      5.1652E-03
   2    9.999       9.631       9.182       8.586       7.813       6.861       5.627       4.053       2.153      5.1465E-03
   3    9.999       9.592       9.080       8.382       7.508       6.653       5.521       4.008       2.138      5.1089E-03
   4    9.999       9.539       8.921       7.988       6.732       6.249       5.353       3.945       2.118      5.0615E-03
   5    9.999       9.503       8.785       7.479       4.821       5.723       5.208       3.904       2.106      5.0342E-03
   6    9.999       9.539       8.921       7.989       6.733       6.249       5.353       3.946       2.118      5.0617E-03
   7    9.999       9.593       9.082       8.384       7.510       6.655       5.523       4.009       2.138      5.1099E-03
   8    9.999       9.633       9.186       8.593       7.821       6.868       5.632       4.056       2.154      5.1492E-03
   9    9.999       9.655       9.239       8.686       7.943       6.963       5.687       4.082       2.164      5.1722E-03
  10    9.999       9.664       9.260       8.720       7.984       6.997       5.708       4.093       2.168      5.1820E-03
1
              HEAD IN LAYER   5 AT END OF TIME STEP  47 IN STRESS PERIOD    3
  ---------------------------------------------------------------------------

            1           2           3           4           5           6           7           8           9          10
 ........................................................................................................................
   1    9.999       9.648       9.224       8.663       7.915       6.938       5.668       4.070       2.158      5.1660E-03
   2    9.999       9.629       9.179       8.582       7.808       6.856       5.622       4.049       2.150      5.1471E-03
   3    9.999       9.591       9.077       8.377       7.502       6.647       5.515       4.003       2.134      5.1091E-03
   4    9.999       9.537       8.917       7.982       6.729       6.242       5.346       3.940       2.114      5.0613E-03
   5    9.999       9.501       8.780       7.476       4.922       5.719       5.202       3.898       2.102      5.0338E-03
   6    9.999       9.537       8.917       7.983       6.729       6.242       5.347       3.940       2.114      5.0615E-03
   7    9.999       9.591       9.079       8.379       7.504       6.649       5.517       4.004       2.134      5.1101E-03
   8    9.999       9.632       9.184       8.589       7.816       6.863       5.627       4.051       2.151      5.1498E-03
   9    9.999       9.654       9.237       8.683       7.938       6.958       5.682       4.077       2.161      5.1732E-03
  10    9.999       9.663       9.258       8.717       7.980       6.992       5.703       4.088       2.165      5.1831E-03

 HEAD WILL BE SAVED ON UNIT   51 AT END OF TIME STEP   47, STRESS PERIOD    3

 DRAWDOWN WILL BE SAVED ON UNIT   52 AT END OF TIME STEP   47, STRESS PERIOD    3
1
  VOLUMETRIC BUDGET FOR ENTIRE MODEL AT END OF TIME STEP   47, STRESS PERIOD   3
  ------------------------------------------------------------------------------

     CUMULATIVE VOLUMES      L**3       RATES FOR THIS TIME STEP      L**3/T
     ------------------                 ------------------------

           IN:                                      IN:
           ---                                      ---
             STORAGE =      389746.0312               STORAGE =        1351.0729
       CONSTANT HEAD =           0.0000         CONSTANT HEAD =           0.0000
               WELLS =           0.0000                 WELLS =           0.0000
     HEAD DEP BOUNDS =        9779.8320       HEAD DEP BOUNDS =         235.9800

            TOTAL IN =      399525.8750              TOTAL IN =        1587.0529

          OUT:                                     OUT:
          ----                                     ----
             STORAGE =           0.0000               STORAGE =           0.0000
       CONSTANT HEAD =           0.0000         CONSTANT HEAD =           0.0000
               WELLS =       23500.0000                 WELLS =         500.0000
     HEAD DEP BOUNDS =      376026.6875       HEAD DEP BOUNDS =        1087.0771

           TOTAL OUT =      399526.6875             TOTAL OUT =        1587.0771

            IN - OUT =          -0.8125              IN - OUT =      -2.4292E-02

 PERCENT DISCREPANCY =          -0.00     PERCENT DISCREPANCY =          -0.00






         TIME SUMMARY AT END OF TIME STEP   47 IN STRESS PERIOD    3
                    SECONDS     MINUTES      HOURS       DAYS        YEARS
                    -----------------------------------------------------------
   TIME STEP LENGTH  86400.      1440.0      24.000      1.0000     2.73785E-03
 STRESS PERIOD TIME 4.06080E+06  67680.      1128.0      47.000     0.12868    
         TOTAL TIME 1.27872E+07 2.13120E+05  3552.0      148.00     0.40520    
1
 
 SOLVING FOR HEAD 

 OUTPUT CONTROL FOR STRESS PERIOD    3   TIME STEP   48
    SAVE HEAD FOR ALL LAYERS
    SAVE DRAWDOWN FOR ALL LAYERS
    SAVE BUDGET
    PRINT HEAD FOR ALL LAYERS
    PRINT BUDGET
 UBDSV1 SAVING "         STORAGE" ON UNIT  53 AT TIME STEP 48, STRESS PERIOD   3
 UBDSV2 SAVING "   CONSTANT HEAD" ON UNIT  53 AT TIME STEP 48, STRESS PERIOD   3
 UBDSV1 SAVING "FLOW RIGHT FACE " ON UNIT  53 AT TIME STEP 48, STRESS PERIOD   3
 UBDSV1 SAVING "FLOW FRONT FACE " ON UNIT  53 AT TIME STEP 48, STRESS PERIOD   3
 UBDSV1 SAVING "FLOW LOWER FACE " ON UNIT  53 AT TIME STEP 48, STRESS PERIOD   3
1
              HEAD IN LAYER   1 AT END OF TIME STEP  48 IN STRESS PERIOD    3
  ---------------------------------------------------------------------------

            1           2           3           4           5           6           7           8           9          10
 ........................................................................................................................
   1    9.999       9.655       9.238       8.684       7.941       6.967       5.698       4.098       2.180      1.9278E-03
   2    9.999       9.638       9.195       8.606       7.837       6.888       5.653       4.077       2.172      1.9206E-03
   3    9.999       9.600       9.096       8.406       7.537       6.683       5.550       4.033       2.157      1.9059E-03
   4    9.999       9.548       8.940       8.017       6.752       6.282       5.384       3.972       2.138      1.8869E-03
   5    9.999       9.513       8.806       7.500       3.906       5.740       5.239       3.930       2.126      1.8762E-03
   6    9.999       9.548       8.940       8.018       6.753       6.282       5.384       3.972       2.138      1.8870E-03
   7    9.999       9.601       9.098       8.408       7.539       6.685       5.551       4.034       2.158      1.9062E-03
   8    9.999       9.640       9.199       8.612       7.845       6.894       5.658       4.080       2.174      1.9216E-03
   9    9.999       9.661       9.250       8.703       7.963       6.986       5.711       4.105       2.183      1.9305E-03
  10    9.999       9.669       9.270       8.735       8.004       7.019       5.731       4.115       2.187      1.9343E-03
1
              HEAD IN LAYER   2 AT END OF TIME STEP  48 IN STRESS PERIOD    3
  ---------------------------------------------------------------------------

            1           2           3           4           5           6           7           8           9          10
 ........................................................................................................................
   1    9.999       9.650       9.228       8.670       7.924       6.949       5.681       4.084       2.171      4.5426E-03
   2    9.999       9.632       9.184       8.590       7.818       6.868       5.636       4.063       2.163      4.5263E-03
   3    9.999       9.594       9.084       8.388       7.515       6.661       5.530       4.018       2.147      4.4932E-03
   4    9.999       9.541       8.925       7.995       6.728       6.257       5.362       3.955       2.127      4.4514E-03
   5    9.999       9.505       8.789       7.476       4.254       5.717       5.217       3.914       2.116      4.4273E-03
   6    9.999       9.541       8.925       7.996       6.729       6.258       5.363       3.955       2.127      4.4516E-03
   7    9.999       9.595       9.085       8.390       7.517       6.663       5.532       4.018       2.148      4.4941E-03
   8    9.999       9.634       9.189       8.597       7.826       6.875       5.640       4.065       2.164      4.5286E-03
   9    9.999       9.656       9.241       8.690       7.948       6.969       5.695       4.091       2.173      4.5488E-03
  10    9.999       9.665       9.262       8.723       7.989       7.003       5.716       4.101       2.178      4.5574E-03
1
              HEAD IN LAYER   3 AT END OF TIME STEP  48 IN STRESS PERIOD    3
  ---------------------------------------------------------------------------

            1           2           3           4           5           6           7           8           9          10
 ........................................................................................................................
   1    9.999       9.646       9.221       8.659       7.911       6.934       5.666       4.070       2.160      5.0901E-03
   2    9.999       9.628       9.176       8.578       7.803       6.852       5.619       4.048       2.152      5.0713E-03
   3    9.999       9.589       9.074       8.373       7.496       6.642       5.512       4.002       2.136      5.0335E-03
   4    9.999       9.535       8.913       7.977       6.712       6.235       5.342       3.939       2.116      4.9858E-03
   5    9.999       9.499       8.777       7.462       4.581       5.701       5.197       3.897       2.104      4.9585E-03
   6    9.999       9.535       8.914       7.978       6.713       6.236       5.343       3.939       2.116      4.9861E-03
   7    9.999       9.590       9.075       8.375       7.499       6.644       5.513       4.003       2.136      5.0344E-03
   8    9.999       9.630       9.181       8.585       7.811       6.859       5.624       4.051       2.153      5.0741E-03
   9    9.999       9.653       9.234       8.680       7.935       6.955       5.680       4.077       2.163      5.0974E-03
  10    9.999       9.662       9.255       8.714       7.977       6.989       5.701       4.088       2.167      5.1073E-03
1
              HEAD IN LAYER   4 AT END OF TIME STEP  48 IN STRESS PERIOD    3
  ---------------------------------------------------------------------------

            1           2           3           4           5           6           7           8           9          10
 ........................................................................................................................
   1    9.999       9.644       9.216       8.652       7.902       6.924       5.656       4.061       2.153      5.1461E-03
   2    9.999       9.625       9.170       8.570       7.793       6.840       5.608       4.039       2.145      5.1267E-03
   3    9.999       9.586       9.067       8.363       7.484       6.629       5.500       3.992       2.129      5.0877E-03
   4    9.999       9.531       8.905       7.965       6.704       6.221       5.329       3.928       2.108      5.0388E-03
   5    9.999       9.495       8.768       7.454       4.789       5.693       5.183       3.886       2.096      5.0109E-03
   6    9.999       9.531       8.906       7.966       6.705       6.222       5.330       3.928       2.108      5.0391E-03
   7    9.999       9.586       9.069       8.365       7.487       6.631       5.501       3.993       2.129      5.0887E-03
   8    9.999       9.628       9.175       8.577       7.801       6.848       5.613       4.042       2.146      5.1296E-03
   9    9.999       9.650       9.230       8.673       7.926       6.945       5.670       4.068       2.156      5.1537E-03
  10    9.999       9.660       9.251       8.708       7.969       6.980       5.692       4.080       2.161      5.1640E-03
1
              HEAD IN LAYER   5 AT END OF TIME STEP  48 IN STRESS PERIOD    3
  ---------------------------------------------------------------------------

            1           2           3           4           5           6           7           8           9          10
 ........................................................................................................................
   1    9.999       9.643       9.214       8.648       7.897       6.919       5.651       4.056       2.150      5.1470E-03
   2    9.999       9.624       9.168       8.566       7.788       6.835       5.603       4.034       2.142      5.1273E-03
   3    9.999       9.584       9.064       8.358       7.478       6.622       5.494       3.987       2.125      5.0879E-03
   4    9.999       9.529       8.901       7.959       6.701       6.214       5.322       3.922       2.104      5.0386E-03
   5    9.999       9.493       8.764       7.451       4.890       5.690       5.177       3.880       2.093      5.0106E-03
   6    9.999       9.530       8.902       7.960       6.702       6.215       5.323       3.923       2.105      5.0390E-03
   7    9.999       9.585       9.065       8.360       7.481       6.625       5.495       3.988       2.126      5.0890E-03
   8    9.999       9.626       9.173       8.573       7.796       6.842       5.608       4.037       2.143      5.1302E-03
   9    9.999       9.649       9.227       8.669       7.922       6.940       5.665       4.064       2.153      5.1547E-03
  10    9.999       9.659       9.249       8.704       7.965       6.976       5.687       4.075       2.157      5.1651E-03

 HEAD WILL BE SAVED ON UNIT   51 AT END OF TIME STEP   48, STRESS PERIOD    3

 DRAWDOWN WILL BE SAVED ON UNIT   52 AT END OF TIME STEP   48, STRESS PERIOD    3
1
  VOLUMETRIC BUDGET FOR ENTIRE MODEL AT END OF TIME STEP   48, STRESS PERIOD   3
  ------------------------------------------------------------------------------

     CUMULATIVE VOLUMES      L**3       RATES FOR THIS TIME STEP      L**3/T
     ------------------                 ------------------------

           IN:                                      IN:
           ---                                      ---
             STORAGE =      391089.0000               STORAGE =        1342.9768
       CONSTANT HEAD =           0.0000         CONSTANT HEAD =           0.0000
               WELLS =           0.0000                 WELLS =           0.0000
     HEAD DEP BOUNDS =       10019.5010       HEAD DEP BOUNDS =         239.6694

            TOTAL IN =      401108.5000              TOTAL IN =        1582.6462

          OUT:                                     OUT:
          ----                                     ----
             STORAGE =           0.0000               STORAGE =           0.0000
       CONSTANT HEAD =           0.0000         CONSTANT HEAD =           0.0000
               WELLS =       24000.0000                 WELLS =         500.0000
     HEAD DEP BOUNDS =      377109.3438       HEAD DEP BOUNDS =        1082.6589

           TOTAL OUT =      401109.3438             TOTAL OUT =        1582.6589

            IN - OUT =          -0.8438              IN - OUT =      -1.2695E-02

 PERCENT DISCREPANCY =          -0.00     PERCENT DISCREPANCY =          -0.00






         TIME SUMMARY AT END OF TIME STEP   48 IN STRESS PERIOD    3
                    SECONDS     MINUTES      HOURS       DAYS        YEARS
                    -----------------------------------------------------------
   TIME STEP LENGTH  86400.      1440.0      24.000      1.0000     2.73785E-03
 STRESS PERIOD TIME 4.14720E+06  69120.      1152.0      48.000     0.13142    
         TOTAL TIME 1.28736E+07 2.14560E+05  3576.0      149.00     0.40794    
1
 
 SOLVING FOR HEAD 

 OUTPUT CONTROL FOR STRESS PERIOD    3   TIME STEP   49
    SAVE HEAD FOR ALL LAYERS
    SAVE DRAWDOWN FOR ALL LAYERS
    SAVE BUDGET
    PRINT HEAD FOR ALL LAYERS
    PRINT BUDGET
 UBDSV1 SAVING "         STORAGE" ON UNIT  53 AT TIME STEP 49, STRESS PERIOD   3
 UBDSV2 SAVING "   CONSTANT HEAD" ON UNIT  53 AT TIME STEP 49, STRESS PERIOD   3
 UBDSV1 SAVING "FLOW RIGHT FACE " ON UNIT  53 AT TIME STEP 49, STRESS PERIOD   3
 UBDSV1 SAVING "FLOW FRONT FACE " ON UNIT  53 AT TIME STEP 49, STRESS PERIOD   3
 UBDSV1 SAVING "FLOW LOWER FACE " ON UNIT  53 AT TIME STEP 49, STRESS PERIOD   3
1
              HEAD IN LAYER   1 AT END OF TIME STEP  49 IN STRESS PERIOD    3
  ---------------------------------------------------------------------------

            1           2           3           4           5           6           7           8           9          10
 ........................................................................................................................
   1    9.999       9.650       9.228       8.669       7.923       6.948       5.681       4.084       2.172      1.9201E-03
   2    9.999       9.632       9.184       8.589       7.817       6.867       5.634       4.062       2.164      1.9126E-03
   3    9.999       9.594       9.083       8.387       7.513       6.659       5.528       4.017       2.148      1.8971E-03
   4    9.999       9.541       8.924       7.994       6.724       6.254       5.360       3.954       2.128      1.8780E-03
   5    9.999       9.505       8.789       7.475       3.874       5.709       5.214       3.912       2.117      1.8667E-03
   6    9.999       9.541       8.925       7.995       6.725       6.254       5.360       3.954       2.128      1.8781E-03
   7    9.999       9.594       9.085       8.389       7.516       6.661       5.530       4.018       2.149      1.8976E-03
   8    9.999       9.634       9.188       8.596       7.825       6.874       5.639       4.065       2.165      1.9137E-03
   9    9.999       9.656       9.241       8.689       7.947       6.968       5.694       4.091       2.175      1.9230E-03
  10    9.999       9.665       9.261       8.723       7.988       7.002       5.715       4.102       2.179      1.9269E-03
1
              HEAD IN LAYER   2 AT END OF TIME STEP  49 IN STRESS PERIOD    3
  ---------------------------------------------------------------------------

            1           2           3           4           5           6           7           8           9          10
 ........................................................................................................................
   1    9.999       9.645       9.218       8.655       7.907       6.930       5.664       4.070       2.163      4.5257E-03
   2    9.999       9.626       9.173       8.574       7.799       6.848       5.617       4.048       2.154      4.5087E-03
   3    9.999       9.587       9.070       8.368       7.491       6.637       5.509       4.001       2.138      4.4744E-03
   4    9.999       9.533       8.909       7.972       6.700       6.229       5.338       3.938       2.118      4.4313E-03
   5    9.999       9.497       8.773       7.452       4.222       5.687       5.192       3.895       2.106      4.4067E-03
   6    9.999       9.533       8.910       7.973       6.701       6.230       5.339       3.938       2.118      4.4316E-03
   7    9.999       9.588       9.072       8.370       7.494       6.639       5.510       4.002       2.139      4.4753E-03
   8    9.999       9.629       9.178       8.581       7.807       6.855       5.622       4.051       2.156      4.5112E-03
   9    9.999       9.651       9.232       8.676       7.931       6.951       5.678       4.077       2.166      4.5324E-03
  10    9.999       9.661       9.253       8.711       7.974       6.986       5.699       4.088       2.170      4.5414E-03
1
              HEAD IN LAYER   3 AT END OF TIME STEP  49 IN STRESS PERIOD    3
  ---------------------------------------------------------------------------

            1           2           3           4           5           6           7           8           9          10
 ........................................................................................................................
   1    9.999       9.641       9.211       8.644       7.893       6.915       5.648       4.056       2.152      5.0714E-03
   2    9.999       9.622       9.165       8.562       7.783       6.831       5.600       4.034       2.144      5.0517E-03
   3    9.999       9.582       9.060       8.353       7.473       6.618       5.491       3.986       2.127      5.0126E-03
   4    9.999       9.527       8.898       7.954       6.685       6.208       5.319       3.921       2.106      4.9635E-03
   5    9.999       9.491       8.760       7.437       4.550       5.671       5.172       3.879       2.094      4.9356E-03
   6    9.999       9.528       8.898       7.955       6.685       6.208       5.319       3.922       2.106      4.9638E-03
   7    9.999       9.583       9.062       8.356       7.476       6.620       5.492       3.987       2.128      5.0136E-03
   8    9.999       9.625       9.170       8.569       7.792       6.838       5.605       4.037       2.145      5.0547E-03
   9    9.999       9.648       9.225       8.666       7.918       6.937       5.663       4.064       2.155      5.0791E-03
  10    9.999       9.657       9.247       8.701       7.962       6.972       5.685       4.075       2.160      5.0896E-03
1
              HEAD IN LAYER   4 AT END OF TIME STEP  49 IN STRESS PERIOD    3
  ---------------------------------------------------------------------------

            1           2           3           4           5           6           7           8           9          10
 ........................................................................................................................
   1    9.999       9.639       9.206       8.637       7.884       6.905       5.638       4.047       2.145      5.1272E-03
   2    9.999       9.620       9.159       8.553       7.773       6.820       5.589       4.024       2.137      5.1070E-03
   3    9.999       9.579       9.054       8.343       7.461       6.605       5.479       3.976       2.120      5.0666E-03
   4    9.999       9.524       8.890       7.943       6.677       6.194       5.305       3.911       2.099      5.0163E-03
   5    9.999       9.487       8.752       7.430       4.758       5.664       5.159       3.868       2.087      4.9878E-03
   6    9.999       9.524       8.890       7.943       6.677       6.194       5.306       3.911       2.099      5.0167E-03
   7    9.999       9.580       9.056       8.346       7.464       6.608       5.480       3.977       2.120      5.0677E-03
   8    9.999       9.622       9.165       8.561       7.782       6.828       5.595       4.027       2.138      5.1101E-03
   9    9.999       9.646       9.220       8.659       7.909       6.927       5.653       4.055       2.149      5.1353E-03
  10    9.999       9.655       9.242       8.695       7.954       6.963       5.676       4.067       2.153      5.1462E-03
1
              HEAD IN LAYER   5 AT END OF TIME STEP  49 IN STRESS PERIOD    3
  ---------------------------------------------------------------------------

            1           2           3           4           5           6           7           8           9          10
 ........................................................................................................................
   1    9.999       9.638       9.203       8.633       7.879       6.900       5.633       4.042       2.142      5.1281E-03
   2    9.999       9.618       9.156       8.549       7.768       6.814       5.584       4.019       2.133      5.1076E-03
   3    9.999       9.577       9.050       8.338       7.455       6.599       5.473       3.971       2.116      5.0669E-03
   4    9.999       9.522       8.886       7.937       6.673       6.186       5.299       3.905       2.095      5.0162E-03
   5    9.999       9.485       8.748       7.427       4.860       5.660       5.152       3.862       2.083      4.9874E-03
   6    9.999       9.522       8.886       7.938       6.674       6.187       5.299       3.905       2.095      5.0165E-03
   7    9.999       9.578       9.052       8.341       7.458       6.601       5.474       3.972       2.117      5.0680E-03
   8    9.999       9.621       9.162       8.557       7.777       6.822       5.589       4.022       2.135      5.1108E-03
   9    9.999       9.644       9.218       8.656       7.905       6.922       5.648       4.051       2.145      5.1363E-03
  10    9.999       9.654       9.240       8.692       7.950       6.959       5.671       4.062       2.150      5.1473E-03

 HEAD WILL BE SAVED ON UNIT   51 AT END OF TIME STEP   49, STRESS PERIOD    3

 DRAWDOWN WILL BE SAVED ON UNIT   52 AT END OF TIME STEP   49, STRESS PERIOD    3
1
  VOLUMETRIC BUDGET FOR ENTIRE MODEL AT END OF TIME STEP   49, STRESS PERIOD   3
  ------------------------------------------------------------------------------

     CUMULATIVE VOLUMES      L**3       RATES FOR THIS TIME STEP      L**3/T
     ------------------                 ------------------------

           IN:                                      IN:
           ---                                      ---
             STORAGE =      392423.9062               STORAGE =        1334.9143
       CONSTANT HEAD =           0.0000         CONSTANT HEAD =           0.0000
               WELLS =           0.0000                 WELLS =           0.0000
     HEAD DEP BOUNDS =       10262.8525       HEAD DEP BOUNDS =         243.3517

            TOTAL IN =      402686.7500              TOTAL IN =        1578.2660

          OUT:                                     OUT:
          ----                                     ----
             STORAGE =           0.0000               STORAGE =           0.0000
       CONSTANT HEAD =           0.0000         CONSTANT HEAD =           0.0000
               WELLS =       24500.0000                 WELLS =         500.0000
     HEAD DEP BOUNDS =      378187.6250       HEAD DEP BOUNDS =        1078.2690

           TOTAL OUT =      402687.6250             TOTAL OUT =        1578.2690

            IN - OUT =          -0.8750              IN - OUT =      -3.0518E-03

 PERCENT DISCREPANCY =          -0.00     PERCENT DISCREPANCY =          -0.00






         TIME SUMMARY AT END OF TIME STEP   49 IN STRESS PERIOD    3
                    SECONDS     MINUTES      HOURS       DAYS        YEARS
                    -----------------------------------------------------------
   TIME STEP LENGTH  86400.      1440.0      24.000      1.0000     2.73785E-03
 STRESS PERIOD TIME 4.23360E+06  70560.      1176.0      49.000     0.13415    
         TOTAL TIME 1.29600E+07 2.16000E+05  3600.0      150.00     0.41068    
1
 
 SOLVING FOR HEAD 

 OUTPUT CONTROL FOR STRESS PERIOD    3   TIME STEP   50
    SAVE HEAD FOR ALL LAYERS
    SAVE DRAWDOWN FOR ALL LAYERS
    SAVE BUDGET
    PRINT HEAD FOR ALL LAYERS
    PRINT BUDGET
 UBDSV1 SAVING "         STORAGE" ON UNIT  53 AT TIME STEP 50, STRESS PERIOD   3
 UBDSV2 SAVING "   CONSTANT HEAD" ON UNIT  53 AT TIME STEP 50, STRESS PERIOD   3
 UBDSV1 SAVING "FLOW RIGHT FACE " ON UNIT  53 AT TIME STEP 50, STRESS PERIOD   3
 UBDSV1 SAVING "FLOW FRONT FACE " ON UNIT  53 AT TIME STEP 50, STRESS PERIOD   3
 UBDSV1 SAVING "FLOW LOWER FACE " ON UNIT  53 AT TIME STEP 50, STRESS PERIOD   3
1
              HEAD IN LAYER   1 AT END OF TIME STEP  50 IN STRESS PERIOD    3
  ---------------------------------------------------------------------------

            1           2           3           4           5           6           7           8           9          10
 ........................................................................................................................
   1    9.999       9.645       9.218       8.655       7.906       6.929       5.663       4.070       2.164      1.9124E-03
   2    9.999       9.626       9.173       8.573       7.797       6.846       5.615       4.048       2.156      1.9044E-03
   3    9.999       9.587       9.070       8.367       7.489       6.635       5.507       4.001       2.139      1.8885E-03
   4    9.999       9.533       8.909       7.971       6.696       6.226       5.336       3.936       2.119      1.8687E-03
   5    9.999       9.497       8.773       7.451       3.842       5.680       5.189       3.894       2.107      1.8573E-03
   6    9.999       9.533       8.909       7.972       6.697       6.227       5.336       3.937       2.119      1.8689E-03
   7    9.999       9.588       9.071       8.369       7.492       6.637       5.508       4.002       2.140      1.8890E-03
   8    9.999       9.629       9.178       8.580       7.806       6.853       5.620       4.050       2.157      1.9058E-03
   9    9.999       9.651       9.232       8.675       7.930       6.950       5.677       4.077       2.167      1.9155E-03
  10    9.999       9.661       9.253       8.710       7.973       6.985       5.699       4.089       2.171      1.9199E-03
1
              HEAD IN LAYER   2 AT END OF TIME STEP  50 IN STRESS PERIOD    3
  ---------------------------------------------------------------------------

            1           2           3           4           5           6           7           8           9          10
 ........................................................................................................................
   1    9.999       9.640       9.208       8.641       7.889       6.911       5.646       4.056       2.155      4.5089E-03
   2    9.999       9.621       9.162       8.558       7.779       6.827       5.598       4.033       2.146      4.4911E-03
   3    9.999       9.581       9.057       8.349       7.468       6.613       5.487       3.985       2.129      4.4556E-03
   4    9.999       9.525       8.894       7.949       6.672       6.202       5.315       3.920       2.108      4.4113E-03
   5    9.999       9.489       8.757       7.427       4.190       5.657       5.167       3.877       2.096      4.3861E-03
   6    9.999       9.526       8.895       7.950       6.673       6.202       5.315       3.921       2.108      4.4116E-03
   7    9.999       9.581       9.059       8.351       7.470       6.615       5.489       3.986       2.130      4.4566E-03
   8    9.999       9.623       9.167       8.565       7.788       6.834       5.603       4.036       2.147      4.4939E-03
   9    9.999       9.647       9.223       8.663       7.914       6.933       5.661       4.064       2.158      4.5160E-03
  10    9.999       9.656       9.244       8.698       7.958       6.969       5.683       4.075       2.162      4.5255E-03
1
              HEAD IN LAYER   3 AT END OF TIME STEP  50 IN STRESS PERIOD    3
  ---------------------------------------------------------------------------

            1           2           3           4           5           6           7           8           9          10
 ........................................................................................................................
   1    9.999       9.636       9.201       8.630       7.875       6.896       5.631       4.042       2.144      5.0527E-03
   2    9.999       9.617       9.153       8.545       7.763       6.810       5.581       4.019       2.136      5.0323E-03
   3    9.999       9.576       9.047       8.334       7.449       6.594       5.469       3.970       2.118      4.9917E-03
   4    9.999       9.520       8.882       7.932       6.657       6.180       5.295       3.904       2.097      4.9413E-03
   5    9.999       9.483       8.744       7.413       4.519       5.642       5.147       3.861       2.085      4.9128E-03
   6    9.999       9.520       8.883       7.933       6.658       6.181       5.296       3.904       2.097      4.9417E-03
   7    9.999       9.577       9.049       8.337       7.452       6.597       5.471       3.971       2.119      4.9929E-03
   8    9.999       9.619       9.159       8.553       7.773       6.818       5.587       4.022       2.137      5.0355E-03
   9    9.999       9.643       9.216       8.652       7.901       6.919       5.646       4.051       2.148      5.0610E-03
  10    9.999       9.653       9.238       8.689       7.946       6.956       5.669       4.062       2.152      5.0719E-03
1
              HEAD IN LAYER   4 AT END OF TIME STEP  50 IN STRESS PERIOD    3
  ---------------------------------------------------------------------------

            1           2           3           4           5           6           7           8           9          10
 ........................................................................................................................
   1    9.999       9.634       9.196       8.623       7.866       6.886       5.621       4.033       2.137      5.1084E-03
   2    9.999       9.614       9.148       8.537       7.753       6.799       5.570       4.009       2.129      5.0874E-03
   3    9.999       9.572       9.040       8.324       7.437       6.581       5.457       3.960       2.111      5.0457E-03
   4    9.999       9.516       8.875       7.920       6.649       6.166       5.282       3.893       2.089      4.9939E-03
   5    9.999       9.479       8.736       7.406       4.728       5.635       5.134       3.850       2.077      4.9648E-03
   6    9.999       9.516       8.875       7.921       6.650       6.167       5.283       3.894       2.090      4.9943E-03
   7    9.999       9.573       9.042       8.327       7.441       6.584       5.459       3.961       2.112      5.0469E-03
   8    9.999       9.617       9.154       8.545       7.763       6.807       5.576       4.013       2.130      5.0907E-03
   9    9.999       9.641       9.211       8.646       7.893       6.909       5.636       4.042       2.141      5.1170E-03
  10    9.999       9.651       9.234       8.683       7.938       6.947       5.660       4.054       2.146      5.1284E-03
1
              HEAD IN LAYER   5 AT END OF TIME STEP  50 IN STRESS PERIOD    3
  ---------------------------------------------------------------------------

            1           2           3           4           5           6           7           8           9          10
 ........................................................................................................................
   1    9.999       9.632       9.193       8.619       7.861       6.881       5.615       4.028       2.134      5.1093E-03
   2    9.999       9.612       9.145       8.533       7.748       6.794       5.565       4.005       2.125      5.0880E-03
   3    9.999       9.571       9.037       8.319       7.431       6.575       5.451       3.955       2.108      5.0459E-03
   4    9.999       9.514       8.871       7.914       6.646       6.159       5.275       3.888       2.086      4.9938E-03
   5    9.999       9.477       8.731       7.403       4.829       5.631       5.127       3.844       2.073      4.9645E-03
   6    9.999       9.514       8.871       7.915       6.647       6.160       5.276       3.888       2.086      4.9942E-03
   7    9.999       9.572       9.039       8.322       7.435       6.578       5.453       3.956       2.108      5.0471E-03
   8    9.999       9.615       9.151       8.541       7.758       6.802       5.571       4.008       2.127      5.0914E-03
   9    9.999       9.640       9.209       8.642       7.888       6.904       5.631       4.037       2.138      5.1180E-03
  10    9.999       9.650       9.232       8.679       7.934       6.942       5.655       4.049       2.143      5.1296E-03

 HEAD WILL BE SAVED ON UNIT   51 AT END OF TIME STEP   50, STRESS PERIOD    3

 DRAWDOWN WILL BE SAVED ON UNIT   52 AT END OF TIME STEP   50, STRESS PERIOD    3
1
  VOLUMETRIC BUDGET FOR ENTIRE MODEL AT END OF TIME STEP   50, STRESS PERIOD   3
  ------------------------------------------------------------------------------

     CUMULATIVE VOLUMES      L**3       RATES FOR THIS TIME STEP      L**3/T
     ------------------                 ------------------------

           IN:                                      IN:
           ---                                      ---
             STORAGE =      393750.7812               STORAGE =        1326.8755
       CONSTANT HEAD =           0.0000         CONSTANT HEAD =           0.0000
               WELLS =           0.0000                 WELLS =           0.0000
     HEAD DEP BOUNDS =       10509.8672       HEAD DEP BOUNDS =         247.0144

            TOTAL IN =      404260.6562              TOTAL IN =        1573.8899

          OUT:                                     OUT:
          ----                                     ----
             STORAGE =           0.0000               STORAGE =           0.0000
       CONSTANT HEAD =           0.0000         CONSTANT HEAD =           0.0000
               WELLS =       25000.0000                 WELLS =         500.0000
     HEAD DEP BOUNDS =      379261.5312       HEAD DEP BOUNDS =        1073.9020

           TOTAL OUT =      404261.5312             TOTAL OUT =        1573.9020

            IN - OUT =          -0.8750              IN - OUT =      -1.2085E-02

 PERCENT DISCREPANCY =          -0.00     PERCENT DISCREPANCY =          -0.00






         TIME SUMMARY AT END OF TIME STEP   50 IN STRESS PERIOD    3
                    SECONDS     MINUTES      HOURS       DAYS        YEARS
                    -----------------------------------------------------------
   TIME STEP LENGTH  86400.      1440.0      24.000      1.0000     2.73785E-03
 STRESS PERIOD TIME 4.32000E+06  72000.      1200.0      50.000     0.13689    
         TOTAL TIME 1.30464E+07 2.17440E+05  3624.0      151.00     0.41342    
1
 
 SOLVING FOR HEAD 

 OUTPUT CONTROL FOR STRESS PERIOD    3   TIME STEP   51
    SAVE HEAD FOR ALL LAYERS
    SAVE DRAWDOWN FOR ALL LAYERS
    SAVE BUDGET
    PRINT HEAD FOR ALL LAYERS
    PRINT BUDGET
 UBDSV1 SAVING "         STORAGE" ON UNIT  53 AT TIME STEP 51, STRESS PERIOD   3
 UBDSV2 SAVING "   CONSTANT HEAD" ON UNIT  53 AT TIME STEP 51, STRESS PERIOD   3
 UBDSV1 SAVING "FLOW RIGHT FACE " ON UNIT  53 AT TIME STEP 51, STRESS PERIOD   3
 UBDSV1 SAVING "FLOW FRONT FACE " ON UNIT  53 AT TIME STEP 51, STRESS PERIOD   3
 UBDSV1 SAVING "FLOW LOWER FACE " ON UNIT  53 AT TIME STEP 51, STRESS PERIOD   3
1
              HEAD IN LAYER   1 AT END OF TIME STEP  51 IN STRESS PERIOD    3
  ---------------------------------------------------------------------------

            1           2           3           4           5           6           7           8           9          10
 ........................................................................................................................
   1    9.999       9.640       9.208       8.640       7.888       6.910       5.645       4.056       2.156      1.9047E-03
   2    9.999       9.621       9.161       8.557       7.778       6.825       5.596       4.033       2.147      1.8965E-03
   3    9.999       9.580       9.056       8.348       7.466       6.611       5.485       3.985       2.130      1.8801E-03
   4    9.999       9.525       8.894       7.948       6.669       6.198       5.312       3.919       2.109      1.8597E-03
   5    9.999       9.489       8.756       7.426       3.811       5.650       5.164       3.876       2.097      1.8481E-03
   6    9.999       9.526       8.894       7.949       6.670       6.199       5.313       3.919       2.109      1.8598E-03
   7    9.999       9.581       9.058       8.350       7.469       6.613       5.487       3.986       2.131      1.8807E-03
   8    9.999       9.623       9.167       8.565       7.786       6.833       5.602       4.036       2.149      1.8978E-03
   9    9.999       9.647       9.222       8.662       7.913       6.932       5.660       4.064       2.159      1.9082E-03
  10    9.999       9.656       9.244       8.698       7.957       6.969       5.683       4.075       2.164      1.9126E-03
1
              HEAD IN LAYER   2 AT END OF TIME STEP  51 IN STRESS PERIOD    3
  ---------------------------------------------------------------------------

            1           2           3           4           5           6           7           8           9          10
 ........................................................................................................................
   1    9.999       9.635       9.198       8.626       7.871       6.893       5.628       4.042       2.147      4.4922E-03
   2    9.999       9.615       9.151       8.541       7.759       6.806       5.579       4.019       2.138      4.4737E-03
   3    9.999       9.574       9.044       8.329       7.444       6.589       5.466       3.969       2.120      4.4370E-03
   4    9.999       9.518       8.879       7.927       6.645       6.174       5.291       3.903       2.099      4.3915E-03
   5    9.999       9.481       8.740       7.403       4.159       5.628       5.143       3.859       2.087      4.3657E-03
   6    9.999       9.518       8.879       7.928       6.646       6.175       5.292       3.903       2.099      4.3918E-03
   7    9.999       9.575       9.046       8.332       7.447       6.592       5.468       3.971       2.121      4.4381E-03
   8    9.999       9.618       9.156       8.550       7.768       6.814       5.584       4.022       2.139      4.4767E-03
   9    9.999       9.642       9.213       8.649       7.898       6.915       5.644       4.051       2.150      4.4998E-03
  10    9.999       9.652       9.236       8.686       7.943       6.953       5.667       4.062       2.155      4.5098E-03
1
              HEAD IN LAYER   3 AT END OF TIME STEP  51 IN STRESS PERIOD    3
  ---------------------------------------------------------------------------

            1           2           3           4           5           6           7           8           9          10
 ........................................................................................................................
   1    9.999       9.631       9.191       8.615       7.857       6.877       5.613       4.028       2.136      5.0341E-03
   2    9.999       9.611       9.142       8.529       7.744       6.790       5.562       4.004       2.127      5.0130E-03
   3    9.999       9.569       9.034       8.315       7.426       6.570       5.448       3.954       2.110      4.9711E-03
   4    9.999       9.512       8.867       7.909       6.630       6.153       5.272       3.887       2.088      4.9193E-03
   5    9.999       9.475       8.728       7.389       4.489       5.613       5.123       3.843       2.075      4.8901E-03
   6    9.999       9.513       8.868       7.910       6.631       6.154       5.272       3.887       2.088      4.9196E-03
   7    9.999       9.570       9.036       8.318       7.430       6.573       5.450       3.955       2.110      4.9723E-03
   8    9.999       9.614       9.148       8.538       7.753       6.798       5.568       4.008       2.129      5.0164E-03
   9    9.999       9.638       9.206       8.639       7.885       6.901       5.629       4.037       2.140      5.0429E-03
  10    9.999       9.649       9.229       8.676       7.931       6.939       5.653       4.050       2.145      5.0545E-03
1
              HEAD IN LAYER   4 AT END OF TIME STEP  51 IN STRESS PERIOD    3
  ---------------------------------------------------------------------------

            1           2           3           4           5           6           7           8           9          10
 ........................................................................................................................
   1    9.999       9.629       9.186       8.608       7.848       6.867       5.603       4.019       2.130      5.0897E-03
   2    9.999       9.608       9.137       8.521       7.734       6.779       5.552       3.995       2.120      5.0679E-03
   3    9.999       9.566       9.027       8.305       7.414       6.558       5.436       3.944       2.102      5.0248E-03
   4    9.999       9.508       8.859       7.898       6.622       6.139       5.259       3.876       2.080      4.9717E-03
   5    9.999       9.471       8.719       7.382       4.698       5.606       5.110       3.832       2.068      4.9420E-03
   6    9.999       9.509       8.860       7.899       6.623       6.140       5.259       3.876       2.080      4.9721E-03
   7    9.999       9.567       9.029       8.308       7.418       6.561       5.439       3.945       2.103      5.0261E-03
   8    9.999       9.611       9.143       8.530       7.744       6.787       5.558       3.998       2.122      5.0715E-03
   9    9.999       9.636       9.202       8.632       7.876       6.891       5.619       4.028       2.133      5.0989E-03
  10    9.999       9.647       9.225       8.670       7.923       6.930       5.644       4.041       2.138      5.1108E-03
1
              HEAD IN LAYER   5 AT END OF TIME STEP  51 IN STRESS PERIOD    3
  ---------------------------------------------------------------------------

            1           2           3           4           5           6           7           8           9          10
 ........................................................................................................................
   1    9.999       9.627       9.183       8.604       7.844       6.862       5.598       4.015       2.126      5.0906E-03
   2    9.999       9.607       9.134       8.517       7.729       6.773       5.546       3.990       2.117      5.0685E-03
   3    9.999       9.564       9.024       8.300       7.408       6.551       5.431       3.939       2.099      5.0250E-03
   4    9.999       9.507       8.855       7.892       6.619       6.133       5.252       3.871       2.076      4.9716E-03
   5    9.999       9.469       8.715       7.379       4.799       5.603       5.103       3.827       2.064      4.9417E-03
   6    9.999       9.507       8.856       7.893       6.620       6.133       5.253       3.871       2.077      4.9720E-03
   7    9.999       9.565       9.026       8.303       7.412       6.554       5.433       3.940       2.099      5.0264E-03
   8    9.999       9.610       9.140       8.526       7.739       6.782       5.552       3.994       2.119      5.0722E-03
   9    9.999       9.635       9.199       8.629       7.872       6.887       5.615       4.024       2.130      5.0999E-03
  10    9.999       9.645       9.223       8.667       7.919       6.925       5.639       4.037       2.135      5.1120E-03

 HEAD WILL BE SAVED ON UNIT   51 AT END OF TIME STEP   51, STRESS PERIOD    3

 DRAWDOWN WILL BE SAVED ON UNIT   52 AT END OF TIME STEP   51, STRESS PERIOD    3
1
  VOLUMETRIC BUDGET FOR ENTIRE MODEL AT END OF TIME STEP   51, STRESS PERIOD   3
  ------------------------------------------------------------------------------

     CUMULATIVE VOLUMES      L**3       RATES FOR THIS TIME STEP      L**3/T
     ------------------                 ------------------------

           IN:                                      IN:
           ---                                      ---
             STORAGE =      395069.6562               STORAGE =        1318.8792
       CONSTANT HEAD =           0.0000         CONSTANT HEAD =           0.0000
               WELLS =           0.0000                 WELLS =           0.0000
     HEAD DEP BOUNDS =       10760.5586       HEAD DEP BOUNDS =         250.6918

            TOTAL IN =      405830.2188              TOTAL IN =        1569.5710

          OUT:                                     OUT:
          ----                                     ----
             STORAGE =           0.0000               STORAGE =           0.0000
       CONSTANT HEAD =           0.0000         CONSTANT HEAD =           0.0000
               WELLS =       25500.0000                 WELLS =         500.0000
     HEAD DEP BOUNDS =      380331.0938       HEAD DEP BOUNDS =        1069.5640

           TOTAL OUT =      405831.0938             TOTAL OUT =        1569.5640

            IN - OUT =          -0.8750              IN - OUT =       7.0801E-03

 PERCENT DISCREPANCY =          -0.00     PERCENT DISCREPANCY =           0.00






         TIME SUMMARY AT END OF TIME STEP   51 IN STRESS PERIOD    3
                    SECONDS     MINUTES      HOURS       DAYS        YEARS
                    -----------------------------------------------------------
   TIME STEP LENGTH  86400.      1440.0      24.000      1.0000     2.73785E-03
 STRESS PERIOD TIME 4.40640E+06  73440.      1224.0      51.000     0.13963    
         TOTAL TIME 1.31328E+07 2.18880E+05  3648.0      152.00     0.41615    
1
 
 SOLVING FOR HEAD 

 OUTPUT CONTROL FOR STRESS PERIOD    3   TIME STEP   52
    SAVE HEAD FOR ALL LAYERS
    SAVE DRAWDOWN FOR ALL LAYERS
    SAVE BUDGET
    PRINT HEAD FOR ALL LAYERS
    PRINT BUDGET
 UBDSV1 SAVING "         STORAGE" ON UNIT  53 AT TIME STEP 52, STRESS PERIOD   3
 UBDSV2 SAVING "   CONSTANT HEAD" ON UNIT  53 AT TIME STEP 52, STRESS PERIOD   3
 UBDSV1 SAVING "FLOW RIGHT FACE " ON UNIT  53 AT TIME STEP 52, STRESS PERIOD   3
 UBDSV1 SAVING "FLOW FRONT FACE " ON UNIT  53 AT TIME STEP 52, STRESS PERIOD   3
 UBDSV1 SAVING "FLOW LOWER FACE " ON UNIT  53 AT TIME STEP 52, STRESS PERIOD   3
1
              HEAD IN LAYER   1 AT END OF TIME STEP  52 IN STRESS PERIOD    3
  ---------------------------------------------------------------------------

            1           2           3           4           5           6           7           8           9          10
 ........................................................................................................................
   1    9.999       9.635       9.198       8.625       7.870       6.891       5.627       4.042       2.148      1.8971E-03
   2    9.999       9.615       9.150       8.541       7.758       6.805       5.577       4.018       2.139      1.8886E-03
   3    9.999       9.574       9.043       8.328       7.443       6.587       5.464       3.969       2.121      1.8716E-03
   4    9.999       9.518       8.878       7.926       6.642       6.171       5.288       3.902       2.100      1.8506E-03
   5    9.999       9.481       8.740       7.402       3.780       5.621       5.139       3.858       2.087      1.8389E-03
   6    9.999       9.518       8.879       7.927       6.642       6.172       5.289       3.902       2.100      1.8507E-03
   7    9.999       9.575       9.045       8.331       7.446       6.590       5.466       3.970       2.122      1.8722E-03
   8    9.999       9.618       9.156       8.549       7.767       6.813       5.583       4.021       2.140      1.8899E-03
   9    9.999       9.642       9.213       8.648       7.897       6.914       5.643       4.050       2.152      1.9007E-03
  10    9.999       9.652       9.235       8.685       7.942       6.952       5.667       4.063       2.156      1.9053E-03
1
              HEAD IN LAYER   2 AT END OF TIME STEP  52 IN STRESS PERIOD    3
  ---------------------------------------------------------------------------

            1           2           3           4           5           6           7           8           9          10
 ........................................................................................................................
   1    9.999       9.630       9.188       8.612       7.853       6.874       5.611       4.028       2.139      4.4756E-03
   2    9.999       9.609       9.139       8.525       7.739       6.786       5.560       4.004       2.130      4.4564E-03
   3    9.999       9.567       9.031       8.310       7.421       6.565       5.445       3.954       2.112      4.4185E-03
   4    9.999       9.510       8.864       7.905       6.618       6.147       5.268       3.886       2.089      4.3717E-03
   5    9.999       9.473       8.724       7.379       4.129       5.600       5.118       3.842       2.077      4.3455E-03
   6    9.999       9.511       8.864       7.905       6.619       6.148       5.268       3.886       2.090      4.3721E-03
   7    9.999       9.568       9.033       8.313       7.425       6.568       5.447       3.955       2.112      4.4197E-03
   8    9.999       9.612       9.145       8.534       7.749       6.794       5.566       4.007       2.131      4.4596E-03
   9    9.999       9.637       9.204       8.635       7.881       6.898       5.627       4.037       2.143      4.4836E-03
  10    9.999       9.648       9.227       8.673       7.927       6.936       5.651       4.050       2.147      4.4941E-03
1
              HEAD IN LAYER   3 AT END OF TIME STEP  52 IN STRESS PERIOD    3
  ---------------------------------------------------------------------------

            1           2           3           4           5           6           7           8           9          10
 ........................................................................................................................
   1    9.999       9.626       9.180       8.601       7.840       6.858       5.596       4.015       2.129      5.0157E-03
   2    9.999       9.605       9.131       8.513       7.724       6.769       5.544       3.990       2.119      4.9937E-03
   3    9.999       9.562       9.021       8.296       7.403       6.547       5.427       3.938       2.101      4.9505E-03
   4    9.999       9.505       8.852       7.887       6.603       6.127       5.248       3.870       2.078      4.8973E-03
   5    9.999       9.467       8.712       7.365       4.459       5.585       5.099       3.825       2.066      4.8676E-03
   6    9.999       9.505       8.853       7.888       6.604       6.127       5.249       3.870       2.078      4.8977E-03
   7    9.999       9.564       9.023       8.299       7.407       6.550       5.430       3.940       2.101      4.9518E-03
   8    9.999       9.608       9.137       8.522       7.734       6.778       5.550       3.993       2.121      4.9974E-03
   9    9.999       9.634       9.197       8.625       7.868       6.883       5.613       4.024       2.133      5.0250E-03
  10    9.999       9.644       9.221       8.664       7.915       6.922       5.637       4.037       2.138      5.0371E-03
1
              HEAD IN LAYER   4 AT END OF TIME STEP  52 IN STRESS PERIOD    3
  ---------------------------------------------------------------------------

            1           2           3           4           5           6           7           8           9          10
 ........................................................................................................................
   1    9.999       9.623       9.175       8.593       7.830       6.848       5.586       4.005       2.122      5.0711E-03
   2    9.999       9.602       9.125       8.505       7.714       6.758       5.533       3.980       2.112      5.0485E-03
   3    9.999       9.559       9.014       8.286       7.392       6.534       5.416       3.928       2.094      5.0040E-03
   4    9.999       9.501       8.844       7.876       6.596       6.113       5.236       3.859       2.071      4.9496E-03
   5    9.999       9.463       8.704       7.359       4.668       5.578       5.086       3.814       2.058      4.9192E-03
   6    9.999       9.501       8.845       7.877       6.597       6.114       5.236       3.859       2.071      4.9500E-03
   7    9.999       9.560       9.016       8.289       7.395       6.537       5.418       3.930       2.094      5.0054E-03
   8    9.999       9.606       9.132       8.514       7.725       6.767       5.539       3.984       2.114      5.0523E-03
   9    9.999       9.631       9.192       8.618       7.860       6.874       5.603       4.015       2.126      5.0808E-03
  10    9.999       9.642       9.216       8.658       7.907       6.913       5.628       4.028       2.131      5.0933E-03
1
              HEAD IN LAYER   5 AT END OF TIME STEP  52 IN STRESS PERIOD    3
  ---------------------------------------------------------------------------

            1           2           3           4           5           6           7           8           9          10
 ........................................................................................................................
   1    9.999       9.622       9.173       8.590       7.826       6.843       5.580       4.001       2.118      5.0720E-03
   2    9.999       9.601       9.123       8.501       7.709       6.753       5.528       3.976       2.109      5.0491E-03
   3    9.999       9.558       9.011       8.281       7.386       6.528       5.410       3.923       2.090      5.0043E-03
   4    9.999       9.499       8.840       7.870       6.593       6.106       5.229       3.854       2.067      4.9495E-03
   5    9.999       9.461       8.699       7.356       4.770       5.575       5.079       3.809       2.054      4.9190E-03
   6    9.999       9.499       8.841       7.871       6.594       6.107       5.230       3.854       2.067      4.9499E-03
   7    9.999       9.559       9.013       8.284       7.389       6.531       5.412       3.925       2.091      5.0057E-03
   8    9.999       9.604       9.129       8.510       7.720       6.762       5.534       3.979       2.111      5.0531E-03
   9    9.999       9.630       9.190       8.615       7.855       6.869       5.598       4.011       2.123      5.0819E-03
  10    9.999       9.641       9.214       8.655       7.903       6.909       5.623       4.024       2.128      5.0945E-03

 HEAD WILL BE SAVED ON UNIT   51 AT END OF TIME STEP   52, STRESS PERIOD    3

 DRAWDOWN WILL BE SAVED ON UNIT   52 AT END OF TIME STEP   52, STRESS PERIOD    3
1
  VOLUMETRIC BUDGET FOR ENTIRE MODEL AT END OF TIME STEP   52, STRESS PERIOD   3
  ------------------------------------------------------------------------------

     CUMULATIVE VOLUMES      L**3       RATES FOR THIS TIME STEP      L**3/T
     ------------------                 ------------------------

           IN:                                      IN:
           ---                                      ---
             STORAGE =      396380.5625               STORAGE =        1310.9010
       CONSTANT HEAD =           0.0000         CONSTANT HEAD =           0.0000
               WELLS =           0.0000                 WELLS =           0.0000
     HEAD DEP BOUNDS =       11014.9014       HEAD DEP BOUNDS =         254.3432

            TOTAL IN =      407395.4688              TOTAL IN =        1565.2443

          OUT:                                     OUT:
          ----                                     ----
             STORAGE =           0.0000               STORAGE =           0.0000
       CONSTANT HEAD =           0.0000         CONSTANT HEAD =           0.0000
               WELLS =       26000.0000                 WELLS =         500.0000
     HEAD DEP BOUNDS =      381396.3438       HEAD DEP BOUNDS =        1065.2477

           TOTAL OUT =      407396.3438             TOTAL OUT =        1565.2477

            IN - OUT =          -0.8750              IN - OUT =      -3.4180E-03

 PERCENT DISCREPANCY =          -0.00     PERCENT DISCREPANCY =          -0.00






         TIME SUMMARY AT END OF TIME STEP   52 IN STRESS PERIOD    3
                    SECONDS     MINUTES      HOURS       DAYS        YEARS
                    -----------------------------------------------------------
   TIME STEP LENGTH  86400.      1440.0      24.000      1.0000     2.73785E-03
 STRESS PERIOD TIME 4.49280E+06  74880.      1248.0      52.000     0.14237    
         TOTAL TIME 1.32192E+07 2.20320E+05  3672.0      153.00     0.41889    
1
 
 SOLVING FOR HEAD 

 OUTPUT CONTROL FOR STRESS PERIOD    3   TIME STEP   53
    SAVE HEAD FOR ALL LAYERS
    SAVE DRAWDOWN FOR ALL LAYERS
    SAVE BUDGET
    PRINT HEAD FOR ALL LAYERS
    PRINT BUDGET
 UBDSV1 SAVING "         STORAGE" ON UNIT  53 AT TIME STEP 53, STRESS PERIOD   3
 UBDSV2 SAVING "   CONSTANT HEAD" ON UNIT  53 AT TIME STEP 53, STRESS PERIOD   3
 UBDSV1 SAVING "FLOW RIGHT FACE " ON UNIT  53 AT TIME STEP 53, STRESS PERIOD   3
 UBDSV1 SAVING "FLOW FRONT FACE " ON UNIT  53 AT TIME STEP 53, STRESS PERIOD   3
 UBDSV1 SAVING "FLOW LOWER FACE " ON UNIT  53 AT TIME STEP 53, STRESS PERIOD   3
1
              HEAD IN LAYER   1 AT END OF TIME STEP  53 IN STRESS PERIOD    3
  ---------------------------------------------------------------------------

            1           2           3           4           5           6           7           8           9          10
 ........................................................................................................................
   1    9.999       9.630       9.187       8.611       7.852       6.873       5.610       4.028       2.140      1.8895E-03
   2    9.999       9.609       9.139       8.524       7.738       6.784       5.559       4.004       2.131      1.8807E-03
   3    9.999       9.567       9.030       8.309       7.420       6.563       5.443       3.953       2.113      1.8633E-03
   4    9.999       9.510       8.863       7.904       6.615       6.144       5.265       3.884       2.090      1.8417E-03
   5    9.999       9.473       8.724       7.379       3.750       5.593       5.115       3.840       2.078      1.8296E-03
   6    9.999       9.511       8.864       7.905       6.616       6.145       5.266       3.885       2.090      1.8420E-03
   7    9.999       9.568       9.032       8.312       7.423       6.566       5.445       3.954       2.113      1.8638E-03
   8    9.999       9.612       9.145       8.533       7.748       6.793       5.565       4.007       2.132      1.8823E-03
   9    9.999       9.637       9.203       8.635       7.880       6.897       5.626       4.037       2.144      1.8933E-03
  10    9.999       9.647       9.227       8.673       7.927       6.935       5.651       4.050       2.149      1.8982E-03
1
              HEAD IN LAYER   2 AT END OF TIME STEP  53 IN STRESS PERIOD    3
  ---------------------------------------------------------------------------

            1           2           3           4           5           6           7           8           9          10
 ........................................................................................................................
   1    9.999       9.625       9.178       8.597       7.836       6.855       5.593       4.014       2.131      4.4591E-03
   2    9.999       9.604       9.128       8.509       7.720       6.765       5.541       3.989       2.121      4.4392E-03
   3    9.999       9.561       9.017       8.291       7.398       6.542       5.424       3.938       2.103      4.4001E-03
   4    9.999       9.503       8.848       7.883       6.592       6.121       5.245       3.869       2.080      4.3521E-03
   5    9.999       9.465       8.708       7.356       4.098       5.571       5.094       3.824       2.067      4.3253E-03
   6    9.999       9.503       8.849       7.884       6.593       6.122       5.245       3.869       2.080      4.3525E-03
   7    9.999       9.562       9.020       8.294       7.402       6.545       5.426       3.939       2.104      4.4013E-03
   8    9.999       9.607       9.134       8.518       7.730       6.774       5.548       3.993       2.123      4.4426E-03
   9    9.999       9.632       9.194       8.622       7.865       6.880       5.610       4.024       2.135      4.4676E-03
  10    9.999       9.643       9.218       8.661       7.912       6.919       5.636       4.037       2.140      4.4786E-03
1
              HEAD IN LAYER   3 AT END OF TIME STEP  53 IN STRESS PERIOD    3
  ---------------------------------------------------------------------------

            1           2           3           4           5           6           7           8           9          10
 ........................................................................................................................
   1    9.999       9.621       9.170       8.586       7.822       6.840       5.578       4.001       2.121      4.9973E-03
   2    9.999       9.600       9.120       8.497       7.705       6.749       5.525       3.975       2.111      4.9746E-03
   3    9.999       9.556       9.008       8.277       7.381       6.523       5.407       3.923       2.092      4.9300E-03
   4    9.999       9.497       8.837       7.866       6.577       6.100       5.225       3.853       2.069      4.8755E-03
   5    9.999       9.459       8.696       7.342       4.429       5.557       5.075       3.808       2.056      4.8452E-03
   6    9.999       9.498       8.838       7.866       6.578       6.101       5.226       3.853       2.069      4.8760E-03
   7    9.999       9.557       9.010       8.280       7.384       6.527       5.409       3.924       2.093      4.9314E-03
   8    9.999       9.603       9.126       8.506       7.715       6.758       5.532       3.979       2.113      4.9785E-03
   9    9.999       9.629       9.187       8.612       7.852       6.866       5.596       4.011       2.125      5.0073E-03
  10    9.999       9.640       9.212       8.651       7.900       6.906       5.622       4.024       2.130      5.0199E-03
1
              HEAD IN LAYER   4 AT END OF TIME STEP  53 IN STRESS PERIOD    3
  ---------------------------------------------------------------------------

            1           2           3           4           5           6           7           8           9          10
 ........................................................................................................................
   1    9.999       9.618       9.165       8.579       7.813       6.830       5.568       3.992       2.114      5.0526E-03
   2    9.999       9.597       9.114       8.489       7.695       6.738       5.514       3.966       2.104      5.0292E-03
   3    9.999       9.553       9.001       8.267       7.369       6.511       5.395       3.913       2.085      4.9834E-03
   4    9.999       9.493       8.829       7.854       6.570       6.086       5.213       3.842       2.062      4.9276E-03
   5    9.999       9.455       8.688       7.335       4.639       5.550       5.062       3.797       2.049      4.8967E-03
   6    9.999       9.494       8.830       7.855       6.571       6.087       5.213       3.843       2.062      4.9281E-03
   7    9.999       9.554       9.003       8.270       7.373       6.514       5.397       3.914       2.086      4.9849E-03
   8    9.999       9.600       9.121       8.498       7.706       6.747       5.521       3.970       2.106      5.0333E-03
   9    9.999       9.627       9.183       8.605       7.843       6.856       5.586       4.002       2.118      5.0629E-03
  10    9.999       9.638       9.208       8.645       7.892       6.897       5.612       4.016       2.124      5.0760E-03
1
              HEAD IN LAYER   5 AT END OF TIME STEP  53 IN STRESS PERIOD    3
  ---------------------------------------------------------------------------

            1           2           3           4           5           6           7           8           9          10
 ........................................................................................................................
   1    9.999       9.617       9.163       8.575       7.808       6.825       5.563       3.987       2.111      5.0535E-03
   2    9.999       9.595       9.111       8.484       7.690       6.732       5.509       3.961       2.101      5.0298E-03
   3    9.999       9.551       8.998       8.262       7.363       6.505       5.389       3.908       2.082      4.9837E-03
   4    9.999       9.492       8.826       7.849       6.567       6.080       5.206       3.837       2.058      4.9275E-03
   5    9.999       9.453       8.684       7.333       4.741       5.547       5.055       3.792       2.045      4.8964E-03
   6    9.999       9.492       8.826       7.850       6.568       6.081       5.207       3.837       2.058      4.9280E-03
   7    9.999       9.552       9.000       8.266       7.367       6.508       5.391       3.909       2.082      4.9852E-03
   8    9.999       9.599       9.118       8.494       7.701       6.742       5.516       3.965       2.103      5.0341E-03
   9    9.999       9.625       9.180       8.601       7.839       6.851       5.581       3.998       2.115      5.0640E-03
  10    9.999       9.637       9.206       8.642       7.888       6.892       5.608       4.011       2.121      5.0772E-03

 HEAD WILL BE SAVED ON UNIT   51 AT END OF TIME STEP   53, STRESS PERIOD    3

 DRAWDOWN WILL BE SAVED ON UNIT   52 AT END OF TIME STEP   53, STRESS PERIOD    3
1
  VOLUMETRIC BUDGET FOR ENTIRE MODEL AT END OF TIME STEP   53, STRESS PERIOD   3
  ------------------------------------------------------------------------------

     CUMULATIVE VOLUMES      L**3       RATES FOR THIS TIME STEP      L**3/T
     ------------------                 ------------------------

           IN:                                      IN:
           ---                                      ---
             STORAGE =      397683.5312               STORAGE =        1302.9623
       CONSTANT HEAD =           0.0000         CONSTANT HEAD =           0.0000
               WELLS =           0.0000                 WELLS =           0.0000
     HEAD DEP BOUNDS =       11272.8828       HEAD DEP BOUNDS =         257.9813

            TOTAL IN =      408956.4062              TOTAL IN =        1560.9436

          OUT:                                     OUT:
          ----                                     ----
             STORAGE =           0.0000               STORAGE =           0.0000
       CONSTANT HEAD =           0.0000         CONSTANT HEAD =           0.0000
               WELLS =       26500.0000                 WELLS =         500.0000
     HEAD DEP BOUNDS =      382457.3125       HEAD DEP BOUNDS =        1060.9609

           TOTAL OUT =      408957.3125             TOTAL OUT =        1560.9609

            IN - OUT =          -0.9062              IN - OUT =      -1.7334E-02

 PERCENT DISCREPANCY =          -0.00     PERCENT DISCREPANCY =          -0.00






         TIME SUMMARY AT END OF TIME STEP   53 IN STRESS PERIOD    3
                    SECONDS     MINUTES      HOURS       DAYS        YEARS
                    -----------------------------------------------------------
   TIME STEP LENGTH  86400.      1440.0      24.000      1.0000     2.73785E-03
 STRESS PERIOD TIME 4.57920E+06  76320.      1272.0      53.000     0.14511    
         TOTAL TIME 1.33056E+07 2.21760E+05  3696.0      154.00     0.42163    
1
 
 SOLVING FOR HEAD 

 OUTPUT CONTROL FOR STRESS PERIOD    3   TIME STEP   54
    SAVE HEAD FOR ALL LAYERS
    SAVE DRAWDOWN FOR ALL LAYERS
    SAVE BUDGET
    PRINT HEAD FOR ALL LAYERS
    PRINT BUDGET
 UBDSV1 SAVING "         STORAGE" ON UNIT  53 AT TIME STEP 54, STRESS PERIOD   3
 UBDSV2 SAVING "   CONSTANT HEAD" ON UNIT  53 AT TIME STEP 54, STRESS PERIOD   3
 UBDSV1 SAVING "FLOW RIGHT FACE " ON UNIT  53 AT TIME STEP 54, STRESS PERIOD   3
 UBDSV1 SAVING "FLOW FRONT FACE " ON UNIT  53 AT TIME STEP 54, STRESS PERIOD   3
 UBDSV1 SAVING "FLOW LOWER FACE " ON UNIT  53 AT TIME STEP 54, STRESS PERIOD   3
1
              HEAD IN LAYER   1 AT END OF TIME STEP  54 IN STRESS PERIOD    3
  ---------------------------------------------------------------------------

            1           2           3           4           5           6           7           8           9          10
 ........................................................................................................................
   1    9.999       9.624       9.177       8.596       7.835       6.854       5.592       4.014       2.132      1.8821E-03
   2    9.999       9.604       9.128       8.508       7.719       6.764       5.540       3.989       2.123      1.8729E-03
   3    9.999       9.561       9.017       8.290       7.397       6.540       5.422       3.937       2.104      1.8549E-03
   4    9.999       9.503       8.848       7.882       6.588       6.118       5.242       3.867       2.081      1.8328E-03
   5    9.999       9.465       8.708       7.355       3.720       5.564       5.091       3.822       2.068      1.8204E-03
   6    9.999       9.503       8.849       7.883       6.589       6.118       5.243       3.868       2.081      1.8330E-03
   7    9.999       9.562       9.019       8.293       7.400       6.543       5.425       3.938       2.104      1.8554E-03
   8    9.999       9.607       9.134       8.517       7.729       6.773       5.546       3.993       2.124      1.8746E-03
   9    9.999       9.632       9.194       8.621       7.864       6.879       5.610       4.024       2.136      1.8860E-03
  10    9.999       9.643       9.218       8.660       7.911       6.919       5.635       4.037       2.142      1.8911E-03
1
              HEAD IN LAYER   2 AT END OF TIME STEP  54 IN STRESS PERIOD    3
  ---------------------------------------------------------------------------

            1           2           3           4           5           6           7           8           9          10
 ........................................................................................................................
   1    9.999       9.619       9.168       8.582       7.818       6.836       5.576       4.001       2.123      4.4426E-03
   2    9.999       9.598       9.117       8.493       7.700       6.745       5.522       3.975       2.113      4.4220E-03
   3    9.999       9.554       9.004       8.272       7.376       6.519       5.404       3.922       2.094      4.3817E-03
   4    9.999       9.495       8.834       7.861       6.565       6.094       5.222       3.852       2.071      4.3326E-03
   5    9.999       9.457       8.693       7.333       4.069       5.543       5.070       3.806       2.058      4.3052E-03
   6    9.999       9.496       8.834       7.862       6.566       6.095       5.222       3.852       2.071      4.3330E-03
   7    9.999       9.555       9.007       8.276       7.379       6.522       5.406       3.923       2.095      4.3831E-03
   8    9.999       9.601       9.123       8.502       7.711       6.754       5.529       3.979       2.115      4.4257E-03
   9    9.999       9.628       9.185       8.608       7.848       6.862       5.594       4.011       2.127      4.4517E-03
  10    9.999       9.639       9.210       8.648       7.897       6.903       5.620       4.024       2.133      4.4631E-03
1
              HEAD IN LAYER   3 AT END OF TIME STEP  54 IN STRESS PERIOD    3
  ---------------------------------------------------------------------------

            1           2           3           4           5           6           7           8           9          10
 ........................................................................................................................
   1    9.999       9.616       9.160       8.571       7.804       6.821       5.561       3.987       2.113      4.9791E-03
   2    9.999       9.594       9.108       8.481       7.685       6.728       5.506       3.961       2.103      4.9555E-03
   3    9.999       9.549       8.995       8.258       7.358       6.500       5.386       3.907       2.084      4.9096E-03
   4    9.999       9.490       8.822       7.844       6.551       6.074       5.203       3.836       2.060      4.8538E-03
   5    9.999       9.451       8.680       7.319       4.400       5.529       5.051       3.790       2.047      4.8230E-03
   6    9.999       9.490       8.823       7.845       6.552       6.075       5.203       3.836       2.060      4.8543E-03
   7    9.999       9.551       8.997       8.261       7.362       6.504       5.388       3.909       2.084      4.9112E-03
   8    9.999       9.597       9.115       8.491       7.696       6.738       5.514       3.965       2.105      4.9598E-03
   9    9.999       9.624       9.178       8.598       7.835       6.848       5.579       3.998       2.117      4.9896E-03
  10    9.999       9.636       9.203       8.639       7.885       6.889       5.606       4.011       2.123      5.0028E-03
1
              HEAD IN LAYER   4 AT END OF TIME STEP  54 IN STRESS PERIOD    3
  ---------------------------------------------------------------------------

            1           2           3           4           5           6           7           8           9          10
 ........................................................................................................................
   1    9.999       9.613       9.155       8.564       7.795       6.811       5.551       3.978       2.106      5.0342E-03
   2    9.999       9.591       9.103       8.472       7.675       6.717       5.496       3.952       2.096      5.0100E-03
   3    9.999       9.546       8.988       8.248       7.346       6.488       5.374       3.897       2.076      4.9628E-03
   4    9.999       9.486       8.815       7.833       6.544       6.060       5.190       3.825       2.053      4.9057E-03
   5    9.999       9.447       8.672       7.313       4.610       5.522       5.038       3.780       2.039      4.8743E-03
   6    9.999       9.486       8.815       7.834       6.545       6.061       5.191       3.826       2.053      4.9062E-03
   7    9.999       9.547       8.991       8.252       7.350       6.491       5.377       3.899       2.077      4.9645E-03
   8    9.999       9.595       9.110       8.483       7.687       6.728       5.503       3.956       2.098      5.0144E-03
   9    9.999       9.622       9.173       8.591       7.827       6.838       5.570       3.989       2.111      5.0451E-03
  10    9.999       9.633       9.199       8.633       7.877       6.880       5.597       4.003       2.117      5.0587E-03
1
              HEAD IN LAYER   5 AT END OF TIME STEP  54 IN STRESS PERIOD    3
  ---------------------------------------------------------------------------

            1           2           3           4           5           6           7           8           9          10
 ........................................................................................................................
   1    9.999       9.612       9.152       8.560       7.790       6.806       5.546       3.974       2.103      5.0351E-03
   2    9.999       9.590       9.100       8.468       7.670       6.712       5.490       3.947       2.093      5.0107E-03
   3    9.999       9.544       8.985       8.243       7.340       6.482       5.368       3.892       2.073      4.9631E-03
   4    9.999       9.484       8.811       7.827       6.541       6.054       5.184       3.820       2.049      4.9057E-03
   5    9.999       9.445       8.668       7.310       4.712       5.519       5.032       3.774       2.036      4.8740E-03
   6    9.999       9.485       8.811       7.828       6.542       6.055       5.185       3.821       2.049      4.9062E-03
   7    9.999       9.546       8.987       8.247       7.345       6.485       5.371       3.894       2.074      4.9648E-03
   8    9.999       9.593       9.107       8.479       7.682       6.722       5.498       3.951       2.095      5.0152E-03
   9    9.999       9.621       9.171       8.588       7.822       6.834       5.565       3.985       2.108      5.0462E-03
  10    9.999       9.632       9.197       8.630       7.873       6.876       5.592       3.999       2.113      5.0600E-03

 HEAD WILL BE SAVED ON UNIT   51 AT END OF TIME STEP   54, STRESS PERIOD    3

 DRAWDOWN WILL BE SAVED ON UNIT   52 AT END OF TIME STEP   54, STRESS PERIOD    3
1
  VOLUMETRIC BUDGET FOR ENTIRE MODEL AT END OF TIME STEP   54, STRESS PERIOD   3
  ------------------------------------------------------------------------------

     CUMULATIVE VOLUMES      L**3       RATES FOR THIS TIME STEP      L**3/T
     ------------------                 ------------------------

           IN:                                      IN:
           ---                                      ---
             STORAGE =      398978.5625               STORAGE =        1295.0463
       CONSTANT HEAD =           0.0000         CONSTANT HEAD =           0.0000
               WELLS =           0.0000                 WELLS =           0.0000
     HEAD DEP BOUNDS =       11534.5020       HEAD DEP BOUNDS =         261.6189

            TOTAL IN =      410513.0625              TOTAL IN =        1556.6652

          OUT:                                     OUT:
          ----                                     ----
             STORAGE =           0.0000               STORAGE =           0.0000
       CONSTANT HEAD =           0.0000         CONSTANT HEAD =           0.0000
               WELLS =       27000.0000                 WELLS =         500.0000
     HEAD DEP BOUNDS =      383514.0000       HEAD DEP BOUNDS =        1056.6959

           TOTAL OUT =      410514.0000             TOTAL OUT =        1556.6959

            IN - OUT =          -0.9375              IN - OUT =      -3.0762E-02

 PERCENT DISCREPANCY =          -0.00     PERCENT DISCREPANCY =          -0.00






         TIME SUMMARY AT END OF TIME STEP   54 IN STRESS PERIOD    3
                    SECONDS     MINUTES      HOURS       DAYS        YEARS
                    -----------------------------------------------------------
   TIME STEP LENGTH  86400.      1440.0      24.000      1.0000     2.73785E-03
 STRESS PERIOD TIME 4.66560E+06  77760.      1296.0      54.000     0.14784    
         TOTAL TIME 1.33920E+07 2.23200E+05  3720.0      155.00     0.42437    
1
 
 SOLVING FOR HEAD 

 OUTPUT CONTROL FOR STRESS PERIOD    3   TIME STEP   55
    SAVE HEAD FOR ALL LAYERS
    SAVE DRAWDOWN FOR ALL LAYERS
    SAVE BUDGET
    PRINT HEAD FOR ALL LAYERS
    PRINT BUDGET
 UBDSV1 SAVING "         STORAGE" ON UNIT  53 AT TIME STEP 55, STRESS PERIOD   3
 UBDSV2 SAVING "   CONSTANT HEAD" ON UNIT  53 AT TIME STEP 55, STRESS PERIOD   3
 UBDSV1 SAVING "FLOW RIGHT FACE " ON UNIT  53 AT TIME STEP 55, STRESS PERIOD   3
 UBDSV1 SAVING "FLOW FRONT FACE " ON UNIT  53 AT TIME STEP 55, STRESS PERIOD   3
 UBDSV1 SAVING "FLOW LOWER FACE " ON UNIT  53 AT TIME STEP 55, STRESS PERIOD   3
1
              HEAD IN LAYER   1 AT END OF TIME STEP  55 IN STRESS PERIOD    3
  ---------------------------------------------------------------------------

            1           2           3           4           5           6           7           8           9          10
 ........................................................................................................................
   1    9.999       9.619       9.167       8.582       7.817       6.835       5.575       4.000       2.124      1.8747E-03
   2    9.999       9.598       9.116       8.492       7.699       6.743       5.521       3.975       2.114      1.8651E-03
   3    9.999       9.554       9.004       8.271       7.374       6.517       5.402       3.921       2.095      1.8465E-03
   4    9.999       9.495       8.833       7.860       6.562       6.091       5.219       3.850       2.072      1.8240E-03
   5    9.999       9.457       8.692       7.332       3.691       5.536       5.067       3.805       2.058      1.8114E-03
   6    9.999       9.496       8.834       7.861       6.563       6.092       5.220       3.851       2.072      1.8241E-03
   7    9.999       9.555       9.006       8.275       7.378       6.520       5.404       3.923       2.096      1.8472E-03
   8    9.999       9.601       9.123       8.502       7.710       6.753       5.528       3.979       2.116      1.8669E-03
   9    9.999       9.628       9.185       8.608       7.847       6.861       5.593       4.011       2.129      1.8790E-03
  10    9.999       9.639       9.209       8.648       7.896       6.902       5.619       4.024       2.134      1.8842E-03
1
              HEAD IN LAYER   2 AT END OF TIME STEP  55 IN STRESS PERIOD    3
  ---------------------------------------------------------------------------

            1           2           3           4           5           6           7           8           9          10
 ........................................................................................................................
   1    9.999       9.614       9.157       8.568       7.800       6.817       5.559       3.987       2.115      4.4263E-03
   2    9.999       9.592       9.106       8.477       7.681       6.724       5.504       3.961       2.105      4.4050E-03
   3    9.999       9.548       8.991       8.254       7.353       6.496       5.383       3.906       2.086      4.3635E-03
   4    9.999       9.488       8.819       7.839       6.539       6.068       5.199       3.835       2.062      4.3132E-03
   5    9.999       9.449       8.677       7.310       4.039       5.515       5.047       3.789       2.048      4.2853E-03
   6    9.999       9.488       8.819       7.840       6.541       6.069       5.200       3.835       2.062      4.3136E-03
   7    9.999       9.549       8.994       8.257       7.357       6.499       5.385       3.908       2.086      4.3649E-03
   8    9.999       9.596       9.113       8.487       7.692       6.734       5.511       3.965       2.107      4.4089E-03
   9    9.999       9.623       9.176       8.595       7.832       6.845       5.577       3.998       2.120      4.4359E-03
  10    9.999       9.634       9.201       8.636       7.881       6.886       5.604       4.012       2.125      4.4478E-03
1
              HEAD IN LAYER   3 AT END OF TIME STEP  55 IN STRESS PERIOD    3
  ---------------------------------------------------------------------------

            1           2           3           4           5           6           7           8           9          10
 ........................................................................................................................
   1    9.999       9.610       9.150       8.557       7.787       6.802       5.544       3.974       2.105      4.9609E-03
   2    9.999       9.588       9.097       8.464       7.666       6.708       5.488       3.947       2.095      4.9366E-03
   3    9.999       9.543       8.982       8.239       7.336       6.477       5.365       3.892       2.075      4.8894E-03
   4    9.999       9.482       8.807       7.822       6.525       6.048       5.180       3.819       2.051      4.8323E-03
   5    9.999       9.444       8.665       7.296       4.371       5.502       5.027       3.773       2.037      4.8009E-03
   6    9.999       9.483       8.808       7.824       6.526       6.049       5.181       3.820       2.051      4.8328E-03
   7    9.999       9.544       8.984       8.243       7.340       6.481       5.368       3.893       2.076      4.8911E-03
   8    9.999       9.592       9.104       8.475       7.678       6.718       5.495       3.951       2.097      4.9411E-03
   9    9.999       9.619       9.169       8.585       7.819       6.830       5.563       3.985       2.110      4.9720E-03
  10    9.999       9.631       9.195       8.626       7.870       6.873       5.590       3.999       2.116      4.9858E-03
1
              HEAD IN LAYER   4 AT END OF TIME STEP  55 IN STRESS PERIOD    3
  ---------------------------------------------------------------------------

            1           2           3           4           5           6           7           8           9          10
 ........................................................................................................................
   1    9.999       9.608       9.145       8.549       7.777       6.792       5.533       3.965       2.099      5.0159E-03
   2    9.999       9.585       9.092       8.456       7.656       6.697       5.477       3.937       2.088      4.9909E-03
   3    9.999       9.539       8.975       8.230       7.324       6.465       5.354       3.882       2.068      4.9424E-03
   4    9.999       9.479       8.800       7.811       6.518       6.035       5.168       3.809       2.043      4.8840E-03
   5    9.999       9.440       8.657       7.290       4.581       5.495       5.015       3.762       2.030      4.8520E-03
   6    9.999       9.479       8.801       7.813       6.519       6.036       5.168       3.809       2.044      4.8845E-03
   7    9.999       9.541       8.978       8.233       7.328       6.469       5.357       3.883       2.069      4.9442E-03
   8    9.999       9.589       9.099       8.467       7.668       6.708       5.485       3.942       2.090      4.9956E-03
   9    9.999       9.617       9.164       8.578       7.810       6.821       5.553       3.976       2.104      5.0274E-03
  10    9.999       9.629       9.190       8.620       7.862       6.864       5.581       3.990       2.109      5.0416E-03
1
              HEAD IN LAYER   5 AT END OF TIME STEP  55 IN STRESS PERIOD    3
  ---------------------------------------------------------------------------

            1           2           3           4           5           6           7           8           9          10
 ........................................................................................................................
   1    9.999       9.606       9.142       8.546       7.773       6.787       5.528       3.960       2.095      5.0168E-03
   2    9.999       9.584       9.089       8.452       7.651       6.692       5.472       3.933       2.085      4.9916E-03
   3    9.999       9.538       8.972       8.225       7.318       6.459       5.348       3.877       2.064      4.9427E-03
   4    9.999       9.477       8.796       7.806       6.515       6.028       5.161       3.803       2.040      4.8839E-03
   5    9.999       9.438       8.653       7.287       4.684       5.492       5.008       3.757       2.026      4.8518E-03
   6    9.999       9.477       8.797       7.807       6.516       6.029       5.162       3.804       2.040      4.8845E-03
   7    9.999       9.539       8.974       8.229       7.322       6.463       5.351       3.878       2.065      4.9445E-03
   8    9.999       9.588       9.096       8.463       7.663       6.703       5.480       3.937       2.087      4.9964E-03
   9    9.999       9.616       9.162       8.574       7.806       6.816       5.549       3.972       2.100      5.0285E-03
  10    9.999       9.628       9.188       8.617       7.858       6.859       5.576       3.986       2.106      5.0429E-03

 HEAD WILL BE SAVED ON UNIT   51 AT END OF TIME STEP   55, STRESS PERIOD    3

 DRAWDOWN WILL BE SAVED ON UNIT   52 AT END OF TIME STEP   55, STRESS PERIOD    3
1
  VOLUMETRIC BUDGET FOR ENTIRE MODEL AT END OF TIME STEP   55, STRESS PERIOD   3
  ------------------------------------------------------------------------------

     CUMULATIVE VOLUMES      L**3       RATES FOR THIS TIME STEP      L**3/T
     ------------------                 ------------------------

           IN:                                      IN:
           ---                                      ---
             STORAGE =      400265.7500               STORAGE =        1287.1812
       CONSTANT HEAD =           0.0000         CONSTANT HEAD =           0.0000
               WELLS =           0.0000                 WELLS =           0.0000
     HEAD DEP BOUNDS =       11799.7549       HEAD DEP BOUNDS =         265.2525

            TOTAL IN =      412065.5000              TOTAL IN =        1552.4336

          OUT:                                     OUT:
          ----                                     ----
             STORAGE =           0.0000               STORAGE =           0.0000
       CONSTANT HEAD =           0.0000         CONSTANT HEAD =           0.0000
               WELLS =       27500.0000                 WELLS =         500.0000
     HEAD DEP BOUNDS =      384566.4688       HEAD DEP BOUNDS =        1052.4619

           TOTAL OUT =      412066.4688             TOTAL OUT =        1552.4619

            IN - OUT =          -0.9688              IN - OUT =      -2.8320E-02

 PERCENT DISCREPANCY =          -0.00     PERCENT DISCREPANCY =          -0.00






         TIME SUMMARY AT END OF TIME STEP   55 IN STRESS PERIOD    3
                    SECONDS     MINUTES      HOURS       DAYS        YEARS
                    -----------------------------------------------------------
   TIME STEP LENGTH  86400.      1440.0      24.000      1.0000     2.73785E-03
 STRESS PERIOD TIME 4.75200E+06  79200.      1320.0      55.000     0.15058    
         TOTAL TIME 1.34784E+07 2.24640E+05  3744.0      156.00     0.42710    
1
 
 SOLVING FOR HEAD 

 OUTPUT CONTROL FOR STRESS PERIOD    3   TIME STEP   56
    SAVE HEAD FOR ALL LAYERS
    SAVE DRAWDOWN FOR ALL LAYERS
    SAVE BUDGET
    PRINT HEAD FOR ALL LAYERS
    PRINT BUDGET
 UBDSV1 SAVING "         STORAGE" ON UNIT  53 AT TIME STEP 56, STRESS PERIOD   3
 UBDSV2 SAVING "   CONSTANT HEAD" ON UNIT  53 AT TIME STEP 56, STRESS PERIOD   3
 UBDSV1 SAVING "FLOW RIGHT FACE " ON UNIT  53 AT TIME STEP 56, STRESS PERIOD   3
 UBDSV1 SAVING "FLOW FRONT FACE " ON UNIT  53 AT TIME STEP 56, STRESS PERIOD   3
 UBDSV1 SAVING "FLOW LOWER FACE " ON UNIT  53 AT TIME STEP 56, STRESS PERIOD   3
1
              HEAD IN LAYER   1 AT END OF TIME STEP  56 IN STRESS PERIOD    3
  ---------------------------------------------------------------------------

            1           2           3           4           5           6           7           8           9          10
 ........................................................................................................................
   1    9.999       9.614       9.157       8.567       7.799       6.816       5.558       3.987       2.117      1.8673E-03
   2    9.999       9.592       9.105       8.476       7.680       6.723       5.503       3.960       2.106      1.8574E-03
   3    9.999       9.547       8.991       8.253       7.352       6.493       5.381       3.906       2.086      1.8383E-03
   4    9.999       9.488       8.818       7.838       6.536       6.065       5.196       3.833       2.062      1.8152E-03
   5    9.999       9.449       8.677       7.309       3.662       5.509       5.043       3.787       2.049      1.8023E-03
   6    9.999       9.488       8.819       7.840       6.537       6.066       5.197       3.834       2.063      1.8154E-03
   7    9.999       9.549       8.993       8.256       7.356       6.497       5.384       3.907       2.087      1.8390E-03
   8    9.999       9.596       9.112       8.486       7.691       6.733       5.510       3.964       2.108      1.8592E-03
   9    9.999       9.623       9.175       8.594       7.831       6.844       5.577       3.998       2.121      1.8717E-03
  10    9.999       9.634       9.201       8.635       7.881       6.886       5.603       4.012       2.127      1.8773E-03
1
              HEAD IN LAYER   2 AT END OF TIME STEP  56 IN STRESS PERIOD    3
  ---------------------------------------------------------------------------

            1           2           3           4           5           6           7           8           9          10
 ........................................................................................................................
   1    9.999       9.609       9.147       8.553       7.783       6.799       5.541       3.973       2.108      4.4100E-03
   2    9.999       9.587       9.094       8.461       7.662       6.704       5.485       3.946       2.097      4.3880E-03
   3    9.999       9.541       8.978       8.235       7.331       6.473       5.362       3.891       2.077      4.3454E-03
   4    9.999       9.481       8.804       7.818       6.514       6.042       5.176       3.818       2.053      4.2939E-03
   5    9.999       9.442       8.661       7.287       4.010       5.488       5.023       3.772       2.039      4.2655E-03
   6    9.999       9.481       8.805       7.819       6.515       6.043       5.177       3.818       2.053      4.2943E-03
   7    9.999       9.542       8.981       8.239       7.335       6.476       5.365       3.892       2.078      4.3469E-03
   8    9.999       9.590       9.102       8.471       7.674       6.715       5.493       3.951       2.099      4.3922E-03
   9    9.999       9.618       9.166       8.581       7.815       6.827       5.561       3.985       2.112      4.4202E-03
  10    9.999       9.630       9.192       8.623       7.866       6.870       5.588       3.999       2.118      4.4326E-03
1
              HEAD IN LAYER   3 AT END OF TIME STEP  56 IN STRESS PERIOD    3
  ---------------------------------------------------------------------------

            1           2           3           4           5           6           7           8           9          10
 ........................................................................................................................
   1    9.999       9.605       9.140       8.542       7.769       6.784       5.526       3.960       2.098      4.9429E-03
   2    9.999       9.582       9.086       8.448       7.646       6.688       5.470       3.932       2.087      4.9178E-03
   3    9.999       9.536       8.969       8.221       7.313       6.454       5.345       3.876       2.066      4.8692E-03
   4    9.999       9.475       8.793       7.801       6.500       6.022       5.158       3.802       2.042      4.8108E-03
   5    9.999       9.436       8.649       7.274       4.342       5.474       5.004       3.756       2.028      4.7789E-03
   6    9.999       9.475       8.794       7.802       6.501       6.023       5.159       3.803       2.042      4.8114E-03
   7    9.999       9.538       8.971       8.225       7.318       6.458       5.348       3.878       2.067      4.8710E-03
   8    9.999       9.586       9.094       8.459       7.659       6.699       5.477       3.937       2.089      4.9226E-03
   9    9.999       9.615       9.159       8.571       7.802       6.813       5.547       3.972       2.103      4.9546E-03
  10    9.999       9.627       9.186       8.614       7.854       6.856       5.575       3.986       2.109      4.9689E-03
1
              HEAD IN LAYER   4 AT END OF TIME STEP  56 IN STRESS PERIOD    3
  ---------------------------------------------------------------------------

            1           2           3           4           5           6           7           8           9          10
 ........................................................................................................................
   1    9.999       9.603       9.135       8.535       7.760       6.774       5.516       3.951       2.091      4.9976E-03
   2    9.999       9.580       9.080       8.440       7.636       6.677       5.459       3.923       2.080      4.9719E-03
   3    9.999       9.533       8.962       8.211       7.302       6.442       5.333       3.866       2.059      4.9221E-03
   4    9.999       9.471       8.785       7.790       6.493       6.009       5.145       3.792       2.034      4.8624E-03
   5    9.999       9.432       8.641       7.268       4.553       5.468       4.991       3.745       2.021      4.8298E-03
   6    9.999       9.472       8.786       7.792       6.494       6.010       5.146       3.793       2.035      4.8630E-03
   7    9.999       9.534       8.965       8.215       7.306       6.446       5.336       3.868       2.060      4.9240E-03
   8    9.999       9.584       9.088       8.451       7.649       6.688       5.467       3.928       2.082      4.9769E-03
   9    9.999       9.612       9.154       8.564       7.794       6.803       5.537       3.963       2.096      5.0098E-03
  10    9.999       9.624       9.182       8.608       7.846       6.848       5.566       3.978       2.102      5.0246E-03
1
              HEAD IN LAYER   5 AT END OF TIME STEP  56 IN STRESS PERIOD    3
  ---------------------------------------------------------------------------

            1           2           3           4           5           6           7           8           9          10
 ........................................................................................................................
   1    9.999       9.601       9.132       8.531       7.755       6.769       5.511       3.947       2.088      4.9986E-03
   2    9.999       9.578       9.078       8.436       7.631       6.672       5.454       3.918       2.077      4.9726E-03
   3    9.999       9.531       8.959       8.206       7.296       6.436       5.328       3.861       2.056      4.9225E-03
   4    9.999       9.469       8.781       7.785       6.490       6.002       5.139       3.787       2.031      4.8624E-03
   5    9.999       9.430       8.637       7.265       4.656       5.465       4.985       3.740       2.017      4.8296E-03
   6    9.999       9.470       8.782       7.786       6.491       6.004       5.140       3.787       2.031      4.8630E-03
   7    9.999       9.533       8.962       8.210       7.301       6.440       5.331       3.863       2.057      4.9244E-03
   8    9.999       9.582       9.086       8.448       7.644       6.683       5.462       3.923       2.079      4.9777E-03
   9    9.999       9.611       9.152       8.561       7.790       6.799       5.532       3.959       2.093      5.0110E-03
  10    9.999       9.623       9.179       8.605       7.842       6.843       5.561       3.974       2.099      5.0259E-03

 HEAD WILL BE SAVED ON UNIT   51 AT END OF TIME STEP   56, STRESS PERIOD    3

 DRAWDOWN WILL BE SAVED ON UNIT   52 AT END OF TIME STEP   56, STRESS PERIOD    3
1
  VOLUMETRIC BUDGET FOR ENTIRE MODEL AT END OF TIME STEP   56, STRESS PERIOD   3
  ------------------------------------------------------------------------------

     CUMULATIVE VOLUMES      L**3       RATES FOR THIS TIME STEP      L**3/T
     ------------------                 ------------------------

           IN:                                      IN:
           ---                                      ---
             STORAGE =      401545.0938               STORAGE =        1279.3341
       CONSTANT HEAD =           0.0000         CONSTANT HEAD =           0.0000
               WELLS =           0.0000                 WELLS =           0.0000
     HEAD DEP BOUNDS =       12068.6436       HEAD DEP BOUNDS =         268.8890

            TOTAL IN =      413613.7500              TOTAL IN =        1548.2231

          OUT:                                     OUT:
          ----                                     ----
             STORAGE =           0.0000               STORAGE =           0.0000
       CONSTANT HEAD =           0.0000         CONSTANT HEAD =           0.0000
               WELLS =       28000.0000                 WELLS =         500.0000
     HEAD DEP BOUNDS =      385614.7188       HEAD DEP BOUNDS =        1048.2494

           TOTAL OUT =      413614.7188             TOTAL OUT =        1548.2494

            IN - OUT =          -0.9688              IN - OUT =      -2.6245E-02

 PERCENT DISCREPANCY =          -0.00     PERCENT DISCREPANCY =          -0.00






         TIME SUMMARY AT END OF TIME STEP   56 IN STRESS PERIOD    3
                    SECONDS     MINUTES      HOURS       DAYS        YEARS
                    -----------------------------------------------------------
   TIME STEP LENGTH  86400.      1440.0      24.000      1.0000     2.73785E-03
 STRESS PERIOD TIME 4.83840E+06  80640.      1344.0      56.000     0.15332    
         TOTAL TIME 1.35648E+07 2.26080E+05  3768.0      157.00     0.42984    
1
 
 SOLVING FOR HEAD 

 OUTPUT CONTROL FOR STRESS PERIOD    3   TIME STEP   57
    SAVE HEAD FOR ALL LAYERS
    SAVE DRAWDOWN FOR ALL LAYERS
    SAVE BUDGET
    PRINT HEAD FOR ALL LAYERS
    PRINT BUDGET
 UBDSV1 SAVING "         STORAGE" ON UNIT  53 AT TIME STEP 57, STRESS PERIOD   3
 UBDSV2 SAVING "   CONSTANT HEAD" ON UNIT  53 AT TIME STEP 57, STRESS PERIOD   3
 UBDSV1 SAVING "FLOW RIGHT FACE " ON UNIT  53 AT TIME STEP 57, STRESS PERIOD   3
 UBDSV1 SAVING "FLOW FRONT FACE " ON UNIT  53 AT TIME STEP 57, STRESS PERIOD   3
 UBDSV1 SAVING "FLOW LOWER FACE " ON UNIT  53 AT TIME STEP 57, STRESS PERIOD   3
1
              HEAD IN LAYER   1 AT END OF TIME STEP  57 IN STRESS PERIOD    3
  ---------------------------------------------------------------------------

            1           2           3           4           5           6           7           8           9          10
 ........................................................................................................................
   1    9.999       9.609       9.147       8.552       7.781       6.798       5.540       3.973       2.109      1.8598E-03
   2    9.999       9.587       9.094       8.460       7.660       6.703       5.484       3.946       2.098      1.8497E-03
   3    9.999       9.541       8.978       8.234       7.329       6.471       5.361       3.890       2.078      1.8301E-03
   4    9.999       9.481       8.804       7.817       6.510       6.039       5.174       3.817       2.053      1.8063E-03
   5    9.999       9.442       8.661       7.287       3.633       5.481       5.020       3.770       2.040      1.7935E-03
   6    9.999       9.481       8.804       7.818       6.512       6.040       5.175       3.817       2.053      1.8066E-03
   7    9.999       9.542       8.981       8.238       7.333       6.474       5.363       3.892       2.079      1.8308E-03
   8    9.999       9.590       9.101       8.470       7.672       6.713       5.492       3.950       2.100      1.8516E-03
   9    9.999       9.618       9.166       8.581       7.814       6.826       5.560       3.984       2.114      1.8646E-03
  10    9.999       9.630       9.192       8.623       7.865       6.869       5.588       3.999       2.120      1.8704E-03
1
              HEAD IN LAYER   2 AT END OF TIME STEP  57 IN STRESS PERIOD    3
  ---------------------------------------------------------------------------

            1           2           3           4           5           6           7           8           9          10
 ........................................................................................................................
   1    9.999       9.604       9.137       8.539       7.765       6.780       5.524       3.960       2.100      4.3939E-03
   2    9.999       9.581       9.083       8.445       7.642       6.684       5.467       3.932       2.089      4.3712E-03
   3    9.999       9.535       8.965       8.216       7.309       6.450       5.342       3.875       2.068      4.3274E-03
   4    9.999       9.473       8.789       7.797       6.488       6.017       5.154       3.801       2.043      4.2747E-03
   5    9.999       9.434       8.646       7.265       3.982       5.461       5.000       3.754       2.030      4.2459E-03
   6    9.999       9.474       8.790       7.798       6.490       6.018       5.155       3.802       2.044      4.2752E-03
   7    9.999       9.536       8.968       8.220       7.313       6.454       5.345       3.877       2.069      4.3290E-03
   8    9.999       9.585       9.091       8.456       7.655       6.695       5.475       3.937       2.091      4.3756E-03
   9    9.999       9.613       9.157       8.568       7.799       6.810       5.545       3.972       2.105      4.4046E-03
  10    9.999       9.626       9.184       8.611       7.851       6.854       5.573       3.987       2.111      4.4175E-03
1
              HEAD IN LAYER   3 AT END OF TIME STEP  57 IN STRESS PERIOD    3
  ---------------------------------------------------------------------------

            1           2           3           4           5           6           7           8           9          10
 ........................................................................................................................
   1    9.999       9.600       9.129       8.528       7.751       6.765       5.509       3.947       2.090      4.9249E-03
   2    9.999       9.577       9.075       8.432       7.627       6.668       5.451       3.918       2.079      4.8990E-03
   3    9.999       9.530       8.956       8.202       7.291       6.432       5.325       3.861       2.058      4.8492E-03
   4    9.999       9.468       8.778       7.780       6.474       5.997       5.135       3.786       2.033      4.7896E-03
   5    9.999       9.428       8.634       7.252       4.314       5.448       4.981       3.739       2.019      4.7571E-03
   6    9.999       9.468       8.779       7.782       6.476       5.998       5.136       3.786       2.033      4.7902E-03
   7    9.999       9.531       8.959       8.206       7.296       6.436       5.328       3.863       2.059      4.8511E-03
   8    9.999       9.581       9.083       8.444       7.640       6.679       5.460       3.923       2.081      4.9041E-03
   9    9.999       9.610       9.150       8.558       7.786       6.796       5.530       3.959       2.095      4.9373E-03
  10    9.999       9.622       9.177       8.602       7.839       6.840       5.559       3.974       2.102      4.9521E-03
1
              HEAD IN LAYER   4 AT END OF TIME STEP  57 IN STRESS PERIOD    3
  ---------------------------------------------------------------------------

            1           2           3           4           5           6           7           8           9          10
 ........................................................................................................................
   1    9.999       9.597       9.124       8.520       7.742       6.755       5.499       3.938       2.084      4.9795E-03
   2    9.999       9.574       9.069       8.424       7.617       6.657       5.441       3.909       2.072      4.9530E-03
   3    9.999       9.526       8.949       8.193       7.280       6.419       5.313       3.851       2.051      4.9019E-03
   4    9.999       9.464       8.771       7.769       6.467       5.984       5.123       3.776       2.025      4.8409E-03
   5    9.999       9.424       8.626       7.245       4.525       5.441       4.968       3.728       2.012      4.8078E-03
   6    9.999       9.464       8.772       7.771       6.469       5.985       5.124       3.776       2.026      4.8416E-03
   7    9.999       9.528       8.952       8.197       7.284       6.424       5.316       3.853       2.052      4.9039E-03
   8    9.999       9.578       9.077       8.436       7.631       6.669       5.449       3.914       2.075      4.9583E-03
   9    9.999       9.607       9.145       8.551       7.778       6.786       5.521       3.950       2.089      4.9924E-03
  10    9.999       9.620       9.173       8.595       7.831       6.831       5.550       3.966       2.095      5.0077E-03
1
              HEAD IN LAYER   5 AT END OF TIME STEP  57 IN STRESS PERIOD    3
  ---------------------------------------------------------------------------

            1           2           3           4           5           6           7           8           9          10
 ........................................................................................................................
   1    9.999       9.596       9.122       8.517       7.738       6.750       5.494       3.933       2.080      4.9805E-03
   2    9.999       9.573       9.066       8.420       7.612       6.652       5.435       3.904       2.069      4.9537E-03
   3    9.999       9.525       8.946       8.188       7.274       6.413       5.308       3.846       2.048      4.9023E-03
   4    9.999       9.462       8.767       7.764       6.465       5.977       5.117       3.770       2.022      4.8409E-03
   5    9.999       9.422       8.622       7.243       4.628       5.438       4.962       3.723       2.008      4.8077E-03
   6    9.999       9.463       8.768       7.765       6.466       5.979       5.118       3.771       2.022      4.8416E-03
   7    9.999       9.526       8.949       8.192       7.279       6.418       5.311       3.848       2.048      4.9043E-03
   8    9.999       9.577       9.075       8.432       7.626       6.663       5.444       3.909       2.071      4.9591E-03
   9    9.999       9.606       9.143       8.547       7.773       6.781       5.516       3.946       2.086      4.9935E-03
  10    9.999       9.619       9.171       8.592       7.827       6.827       5.546       3.962       2.092      5.0090E-03

 HEAD WILL BE SAVED ON UNIT   51 AT END OF TIME STEP   57, STRESS PERIOD    3

 DRAWDOWN WILL BE SAVED ON UNIT   52 AT END OF TIME STEP   57, STRESS PERIOD    3
1
  VOLUMETRIC BUDGET FOR ENTIRE MODEL AT END OF TIME STEP   57, STRESS PERIOD   3
  ------------------------------------------------------------------------------

     CUMULATIVE VOLUMES      L**3       RATES FOR THIS TIME STEP      L**3/T
     ------------------                 ------------------------

           IN:                                      IN:
           ---                                      ---
             STORAGE =      402816.6250               STORAGE =        1271.5350
       CONSTANT HEAD =           0.0000         CONSTANT HEAD =           0.0000
               WELLS =           0.0000                 WELLS =           0.0000
     HEAD DEP BOUNDS =       12341.1602       HEAD DEP BOUNDS =         272.5164

            TOTAL IN =      415157.7812              TOTAL IN =        1544.0514

          OUT:                                     OUT:
          ----                                     ----
             STORAGE =           0.0000               STORAGE =           0.0000
       CONSTANT HEAD =           0.0000         CONSTANT HEAD =           0.0000
               WELLS =       28500.0000                 WELLS =         500.0000
     HEAD DEP BOUNDS =      386658.7812       HEAD DEP BOUNDS =        1044.0626

           TOTAL OUT =      415158.7812             TOTAL OUT =        1544.0626

            IN - OUT =          -1.0000              IN - OUT =      -1.1230E-02

 PERCENT DISCREPANCY =          -0.00     PERCENT DISCREPANCY =          -0.00






         TIME SUMMARY AT END OF TIME STEP   57 IN STRESS PERIOD    3
                    SECONDS     MINUTES      HOURS       DAYS        YEARS
                    -----------------------------------------------------------
   TIME STEP LENGTH  86400.      1440.0      24.000      1.0000     2.73785E-03
 STRESS PERIOD TIME 4.92480E+06  82080.      1368.0      57.000     0.15606    
         TOTAL TIME 1.36512E+07 2.27520E+05  3792.0      158.00     0.43258    
1
 
 SOLVING FOR HEAD 

 OUTPUT CONTROL FOR STRESS PERIOD    3   TIME STEP   58
    SAVE HEAD FOR ALL LAYERS
    SAVE DRAWDOWN FOR ALL LAYERS
    SAVE BUDGET
    PRINT HEAD FOR ALL LAYERS
    PRINT BUDGET
 UBDSV1 SAVING "         STORAGE" ON UNIT  53 AT TIME STEP 58, STRESS PERIOD   3
 UBDSV2 SAVING "   CONSTANT HEAD" ON UNIT  53 AT TIME STEP 58, STRESS PERIOD   3
 UBDSV1 SAVING "FLOW RIGHT FACE " ON UNIT  53 AT TIME STEP 58, STRESS PERIOD   3
 UBDSV1 SAVING "FLOW FRONT FACE " ON UNIT  53 AT TIME STEP 58, STRESS PERIOD   3
 UBDSV1 SAVING "FLOW LOWER FACE " ON UNIT  53 AT TIME STEP 58, STRESS PERIOD   3
1
              HEAD IN LAYER   1 AT END OF TIME STEP  58 IN STRESS PERIOD    3
  ---------------------------------------------------------------------------

            1           2           3           4           5           6           7           8           9          10
 ........................................................................................................................
   1    9.999       9.604       9.136       8.538       7.764       6.779       5.523       3.960       2.101      1.8524E-03
   2    9.999       9.581       9.083       8.444       7.641       6.682       5.466       3.932       2.090      1.8422E-03
   3    9.999       9.534       8.965       8.215       7.307       6.448       5.340       3.875       2.069      1.8219E-03
   4    9.999       9.473       8.789       7.796       6.485       6.014       5.151       3.800       2.044      1.7978E-03
   5    9.999       9.434       8.646       7.265       3.605       5.454       4.997       3.753       2.030      1.7846E-03
   6    9.999       9.474       8.790       7.797       6.486       6.015       5.152       3.801       2.044      1.7980E-03
   7    9.999       9.536       8.968       8.219       7.312       6.452       5.343       3.876       2.070      1.8227E-03
   8    9.999       9.585       9.090       8.455       7.654       6.694       5.474       3.936       2.092      1.8441E-03
   9    9.999       9.613       9.156       8.567       7.798       6.809       5.544       3.971       2.106      1.8574E-03
  10    9.999       9.625       9.183       8.610       7.850       6.853       5.572       3.987       2.113      1.8634E-03
1
              HEAD IN LAYER   2 AT END OF TIME STEP  58 IN STRESS PERIOD    3
  ---------------------------------------------------------------------------

            1           2           3           4           5           6           7           8           9          10
 ........................................................................................................................
   1    9.999       9.599       9.127       8.524       7.747       6.762       5.507       3.946       2.092      4.3778E-03
   2    9.999       9.575       9.072       8.429       7.623       6.664       5.449       3.918       2.081      4.3544E-03
   3    9.999       9.528       8.953       8.198       7.286       6.427       5.322       3.860       2.060      4.3094E-03
   4    9.999       9.466       8.775       7.776       6.463       5.991       5.132       3.785       2.034      4.2556E-03
   5    9.999       9.426       8.631       7.243       3.953       5.434       4.977       3.737       2.020      4.2264E-03
   6    9.999       9.466       8.776       7.777       6.464       5.993       5.133       3.785       2.035      4.2562E-03
   7    9.999       9.530       8.956       8.202       7.291       6.431       5.325       3.862       2.061      4.3112E-03
   8    9.999       9.579       9.080       8.440       7.636       6.676       5.457       3.923       2.083      4.3591E-03
   9    9.999       9.609       9.147       8.554       7.782       6.792       5.528       3.959       2.098      4.3890E-03
  10    9.999       9.621       9.175       8.599       7.836       6.837       5.557       3.974       2.104      4.4025E-03
1
              HEAD IN LAYER   3 AT END OF TIME STEP  58 IN STRESS PERIOD    3
  ---------------------------------------------------------------------------

            1           2           3           4           5           6           7           8           9          10
 ........................................................................................................................
   1    9.999       9.595       9.119       8.513       7.734       6.747       5.492       3.933       2.082      4.9070E-03
   2    9.999       9.571       9.064       8.416       7.608       6.648       5.433       3.904       2.071      4.8804E-03
   3    9.999       9.523       8.943       8.184       7.269       6.409       5.305       3.845       2.049      4.8293E-03
   4    9.999       9.460       8.764       7.760       6.449       5.972       5.113       3.769       2.024      4.7684E-03
   5    9.999       9.421       8.619       7.230       4.286       5.421       4.958       3.722       2.010      4.7354E-03
   6    9.999       9.461       8.765       7.761       6.451       5.973       5.114       3.770       2.024      4.7691E-03
   7    9.999       9.525       8.946       8.188       7.274       6.413       5.308       3.847       2.050      4.8313E-03
   8    9.999       9.575       9.072       8.428       7.622       6.660       5.442       3.909       2.073      4.8858E-03
   9    9.999       9.605       9.140       8.544       7.770       6.778       5.514       3.946       2.088      4.9201E-03
  10    9.999       9.618       9.169       8.589       7.824       6.824       5.544       3.962       2.095      4.9355E-03
1
              HEAD IN LAYER   4 AT END OF TIME STEP  58 IN STRESS PERIOD    3
  ---------------------------------------------------------------------------

            1           2           3           4           5           6           7           8           9          10
 ........................................................................................................................
   1    9.999       9.592       9.114       8.506       7.725       6.737       5.482       3.924       2.076      4.9615E-03
   2    9.999       9.568       9.058       8.408       7.598       6.637       5.422       3.895       2.065      4.9342E-03
   3    9.999       9.520       8.936       8.174       7.258       6.397       5.293       3.836       2.043      4.8818E-03
   4    9.999       9.457       8.756       7.749       6.443       5.959       5.101       3.759       2.016      4.8196E-03
   5    9.999       9.417       8.611       7.224       4.498       5.415       4.946       3.711       2.002      4.7860E-03
   6    9.999       9.457       8.757       7.750       6.444       5.960       5.102       3.760       2.017      4.8203E-03
   7    9.999       9.522       8.940       8.179       7.263       6.401       5.296       3.838       2.043      4.8840E-03
   8    9.999       9.573       9.067       8.421       7.612       6.649       5.431       3.900       2.067      4.9398E-03
   9    9.999       9.603       9.136       8.537       7.761       6.769       5.505       3.937       2.082      4.9750E-03
  10    9.999       9.616       9.164       8.583       7.816       6.815       5.535       3.953       2.088      4.9909E-03
1
              HEAD IN LAYER   5 AT END OF TIME STEP  58 IN STRESS PERIOD    3
  ---------------------------------------------------------------------------

            1           2           3           4           5           6           7           8           9          10
 ........................................................................................................................
   1    9.999       9.591       9.111       8.502       7.720       6.732       5.477       3.920       2.073      4.9625E-03
   2    9.999       9.567       9.055       8.404       7.593       6.632       5.417       3.890       2.061      4.9349E-03
   3    9.999       9.518       8.933       8.170       7.252       6.391       5.288       3.831       2.039      4.8822E-03
   4    9.999       9.455       8.753       7.743       6.440       5.952       5.095       3.754       2.013      4.8196E-03
   5    9.999       9.415       8.607       7.221       4.601       5.412       4.940       3.706       1.999      4.7858E-03
   6    9.999       9.455       8.754       7.745       6.441       5.954       5.096       3.755       2.013      4.8203E-03
   7    9.999       9.520       8.936       8.174       7.257       6.395       5.291       3.833       2.040      4.8844E-03
   8    9.999       9.571       9.064       8.417       7.607       6.644       5.426       3.896       2.064      4.9407E-03
   9    9.999       9.601       9.133       8.534       7.757       6.764       5.500       3.933       2.078      4.9762E-03
  10    9.999       9.614       9.162       8.580       7.812       6.811       5.530       3.949       2.085      4.9923E-03

 HEAD WILL BE SAVED ON UNIT   51 AT END OF TIME STEP   58, STRESS PERIOD    3

 DRAWDOWN WILL BE SAVED ON UNIT   52 AT END OF TIME STEP   58, STRESS PERIOD    3
1
  VOLUMETRIC BUDGET FOR ENTIRE MODEL AT END OF TIME STEP   58, STRESS PERIOD   3
  ------------------------------------------------------------------------------

     CUMULATIVE VOLUMES      L**3       RATES FOR THIS TIME STEP      L**3/T
     ------------------                 ------------------------

           IN:                                      IN:
           ---                                      ---
             STORAGE =      404080.4062               STORAGE =        1263.7666
       CONSTANT HEAD =           0.0000         CONSTANT HEAD =           0.0000
               WELLS =           0.0000                 WELLS =           0.0000
     HEAD DEP BOUNDS =       12617.2861       HEAD DEP BOUNDS =         276.1263

            TOTAL IN =      416697.6875              TOTAL IN =        1539.8928

          OUT:                                     OUT:
          ----                                     ----
             STORAGE =           0.0000               STORAGE =           0.0000
       CONSTANT HEAD =           0.0000         CONSTANT HEAD =           0.0000
               WELLS =       29000.0000                 WELLS =         500.0000
     HEAD DEP BOUNDS =      387698.6875       HEAD DEP BOUNDS =        1039.9006

           TOTAL OUT =      416698.6875             TOTAL OUT =        1539.9006

            IN - OUT =          -1.0000              IN - OUT =      -7.8125E-03

 PERCENT DISCREPANCY =          -0.00     PERCENT DISCREPANCY =          -0.00






         TIME SUMMARY AT END OF TIME STEP   58 IN STRESS PERIOD    3
                    SECONDS     MINUTES      HOURS       DAYS        YEARS
                    -----------------------------------------------------------
   TIME STEP LENGTH  86400.      1440.0      24.000      1.0000     2.73785E-03
 STRESS PERIOD TIME 5.01120E+06  83520.      1392.0      58.000     0.15880    
         TOTAL TIME 1.37376E+07 2.28960E+05  3816.0      159.00     0.43532    
1
 
 SOLVING FOR HEAD 

 OUTPUT CONTROL FOR STRESS PERIOD    3   TIME STEP   59
    SAVE HEAD FOR ALL LAYERS
    SAVE DRAWDOWN FOR ALL LAYERS
    SAVE BUDGET
    PRINT HEAD FOR ALL LAYERS
    PRINT BUDGET
 UBDSV1 SAVING "         STORAGE" ON UNIT  53 AT TIME STEP 59, STRESS PERIOD   3
 UBDSV2 SAVING "   CONSTANT HEAD" ON UNIT  53 AT TIME STEP 59, STRESS PERIOD   3
 UBDSV1 SAVING "FLOW RIGHT FACE " ON UNIT  53 AT TIME STEP 59, STRESS PERIOD   3
 UBDSV1 SAVING "FLOW FRONT FACE " ON UNIT  53 AT TIME STEP 59, STRESS PERIOD   3
 UBDSV1 SAVING "FLOW LOWER FACE " ON UNIT  53 AT TIME STEP 59, STRESS PERIOD   3
1
              HEAD IN LAYER   1 AT END OF TIME STEP  59 IN STRESS PERIOD    3
  ---------------------------------------------------------------------------

            1           2           3           4           5           6           7           8           9          10
 ........................................................................................................................
   1    9.999       9.598       9.126       8.523       7.746       6.760       5.506       3.946       2.094      1.8451E-03
   2    9.999       9.575       9.071       8.428       7.622       6.662       5.447       3.917       2.082      1.8345E-03
   3    9.999       9.528       8.952       8.197       7.285       6.425       5.320       3.859       2.061      1.8137E-03
   4    9.999       9.466       8.774       7.775       6.460       5.988       5.129       3.783       2.035      1.7891E-03
   5    9.999       9.426       8.631       7.243       3.577       5.427       4.974       3.736       2.021      1.7757E-03
   6    9.999       9.466       8.775       7.777       6.461       5.989       5.130       3.784       2.035      1.7894E-03
   7    9.999       9.529       8.955       8.201       7.290       6.429       5.323       3.861       2.062      1.8145E-03
   8    9.999       9.579       9.080       8.439       7.635       6.674       5.456       3.922       2.085      1.8367E-03
   9    9.999       9.608       9.147       8.554       7.781       6.791       5.527       3.959       2.099      1.8504E-03
  10    9.999       9.621       9.175       8.598       7.835       6.836       5.557       3.974       2.105      1.8566E-03
1
              HEAD IN LAYER   2 AT END OF TIME STEP  59 IN STRESS PERIOD    3
  ---------------------------------------------------------------------------

            1           2           3           4           5           6           7           8           9          10
 ........................................................................................................................
   1    9.999       9.593       9.116       8.509       7.730       6.743       5.490       3.933       2.085      4.3617E-03
   2    9.999       9.570       9.061       8.413       7.604       6.644       5.430       3.904       2.073      4.3377E-03
   3    9.999       9.522       8.940       8.180       7.265       6.405       5.302       3.845       2.051      4.2916E-03
   4    9.999       9.459       8.760       7.755       6.438       5.966       5.110       3.768       2.025      4.2367E-03
   5    9.999       9.419       8.616       7.221       3.925       5.408       4.954       3.720       2.011      4.2070E-03
   6    9.999       9.459       8.761       7.757       6.440       5.968       5.111       3.769       2.026      4.2373E-03
   7    9.999       9.523       8.943       8.184       7.270       6.409       5.305       3.847       2.052      4.2935E-03
   8    9.999       9.574       9.069       8.425       7.618       6.656       5.439       3.909       2.076      4.3427E-03
   9    9.999       9.604       9.138       8.541       7.766       6.775       5.512       3.946       2.090      4.3736E-03
  10    9.999       9.617       9.166       8.586       7.821       6.821       5.542       3.962       2.097      4.3876E-03
1
              HEAD IN LAYER   3 AT END OF TIME STEP  59 IN STRESS PERIOD    3
  ---------------------------------------------------------------------------

            1           2           3           4           5           6           7           8           9          10
 ........................................................................................................................
   1    9.999       9.589       9.109       8.498       7.716       6.728       5.475       3.920       2.075      4.8892E-03
   2    9.999       9.565       9.052       8.400       7.589       6.628       5.415       3.890       2.063      4.8618E-03
   3    9.999       9.517       8.930       8.166       7.247       6.387       5.285       3.830       2.041      4.8095E-03
   4    9.999       9.453       8.749       7.739       6.425       5.947       5.091       3.753       2.015      4.7474E-03
   5    9.999       9.413       8.604       7.208       4.259       5.395       4.935       3.705       2.000      4.7139E-03
   6    9.999       9.454       8.750       7.740       6.426       5.948       5.093       3.754       2.015      4.7481E-03
   7    9.999       9.518       8.933       8.170       7.253       6.391       5.288       3.832       2.042      4.8117E-03
   8    9.999       9.570       9.061       8.413       7.603       6.641       5.424       3.895       2.066      4.8676E-03
   9    9.999       9.600       9.131       8.531       7.753       6.761       5.498       3.933       2.081      4.9029E-03
  10    9.999       9.613       9.160       8.577       7.809       6.808       5.528       3.949       2.088      4.9189E-03
1
              HEAD IN LAYER   4 AT END OF TIME STEP  59 IN STRESS PERIOD    3
  ---------------------------------------------------------------------------

            1           2           3           4           5           6           7           8           9          10
 ........................................................................................................................
   1    9.999       9.587       9.104       8.491       7.707       6.718       5.465       3.911       2.068      4.9436E-03
   2    9.999       9.563       9.047       8.392       7.579       6.617       5.404       3.881       2.057      4.9155E-03
   3    9.999       9.513       8.924       8.156       7.236       6.375       5.273       3.821       2.034      4.8618E-03
   4    9.999       9.450       8.742       7.728       6.418       5.934       5.079       3.743       2.008      4.7984E-03
   5    9.999       9.409       8.596       7.202       4.471       5.389       4.923       3.695       1.993      4.7643E-03
   6    9.999       9.450       8.743       7.730       6.420       5.935       5.080       3.744       2.008      4.7991E-03
   7    9.999       9.515       8.927       8.161       7.241       6.379       5.277       3.823       2.035      4.8641E-03
   8    9.999       9.567       9.056       8.405       7.594       6.630       5.414       3.886       2.059      4.9214E-03
   9    9.999       9.598       9.126       8.524       7.745       6.751       5.488       3.925       2.074      4.9578E-03
  10    9.999       9.611       9.156       8.570       7.801       6.799       5.519       3.941       2.081      4.9743E-03
1
              HEAD IN LAYER   5 AT END OF TIME STEP  59 IN STRESS PERIOD    3
  ---------------------------------------------------------------------------

            1           2           3           4           5           6           7           8           9          10
 ........................................................................................................................
   1    9.999       9.586       9.101       8.487       7.703       6.713       5.460       3.907       2.065      4.9446E-03
   2    9.999       9.561       9.044       8.388       7.574       6.612       5.399       3.876       2.053      4.9162E-03
   3    9.999       9.512       8.920       8.152       7.231       6.369       5.268       3.816       2.031      4.8622E-03
   4    9.999       9.448       8.738       7.723       6.415       5.927       5.073       3.738       2.004      4.7984E-03
   5    9.999       9.407       8.592       7.200       4.574       5.386       4.917       3.689       1.990      4.7641E-03
   6    9.999       9.448       8.739       7.724       6.417       5.929       5.074       3.738       2.004      4.7992E-03
   7    9.999       9.514       8.924       8.156       7.236       6.373       5.271       3.818       2.032      4.8646E-03
   8    9.999       9.566       9.053       8.401       7.589       6.625       5.409       3.882       2.056      4.9223E-03
   9    9.999       9.597       9.124       8.521       7.741       6.747       5.484       3.920       2.071      4.9590E-03
  10    9.999       9.610       9.153       8.567       7.797       6.794       5.515       3.937       2.078      4.9756E-03

 HEAD WILL BE SAVED ON UNIT   51 AT END OF TIME STEP   59, STRESS PERIOD    3

 DRAWDOWN WILL BE SAVED ON UNIT   52 AT END OF TIME STEP   59, STRESS PERIOD    3
1
  VOLUMETRIC BUDGET FOR ENTIRE MODEL AT END OF TIME STEP   59, STRESS PERIOD   3
  ------------------------------------------------------------------------------

     CUMULATIVE VOLUMES      L**3       RATES FOR THIS TIME STEP      L**3/T
     ------------------                 ------------------------

           IN:                                      IN:
           ---                                      ---
             STORAGE =      405336.4375               STORAGE =        1256.0295
       CONSTANT HEAD =           0.0000         CONSTANT HEAD =           0.0000
               WELLS =           0.0000                 WELLS =           0.0000
     HEAD DEP BOUNDS =       12897.0078       HEAD DEP BOUNDS =         279.7220

            TOTAL IN =      418233.4375              TOTAL IN =        1535.7516

          OUT:                                     OUT:
          ----                                     ----
             STORAGE =           0.0000               STORAGE =           0.0000
       CONSTANT HEAD =           0.0000         CONSTANT HEAD =           0.0000
               WELLS =       29500.0000                 WELLS =         500.0000
     HEAD DEP BOUNDS =      388734.4375       HEAD DEP BOUNDS =        1035.7623

           TOTAL OUT =      418234.4375             TOTAL OUT =        1535.7623

            IN - OUT =          -1.0000              IN - OUT =      -1.0742E-02

 PERCENT DISCREPANCY =          -0.00     PERCENT DISCREPANCY =          -0.00






         TIME SUMMARY AT END OF TIME STEP   59 IN STRESS PERIOD    3
                    SECONDS     MINUTES      HOURS       DAYS        YEARS
                    -----------------------------------------------------------
   TIME STEP LENGTH  86400.      1440.0      24.000      1.0000     2.73785E-03
 STRESS PERIOD TIME 5.09760E+06  84960.      1416.0      59.000     0.16153    
         TOTAL TIME 1.38240E+07 2.30400E+05  3840.0      160.00     0.43806    
1
 
 SOLVING FOR HEAD 

 OUTPUT CONTROL FOR STRESS PERIOD    3   TIME STEP   60
    SAVE HEAD FOR ALL LAYERS
    SAVE DRAWDOWN FOR ALL LAYERS
    SAVE BUDGET
    PRINT HEAD FOR ALL LAYERS
    PRINT BUDGET
 UBDSV1 SAVING "         STORAGE" ON UNIT  53 AT TIME STEP 60, STRESS PERIOD   3
 UBDSV2 SAVING "   CONSTANT HEAD" ON UNIT  53 AT TIME STEP 60, STRESS PERIOD   3
 UBDSV1 SAVING "FLOW RIGHT FACE " ON UNIT  53 AT TIME STEP 60, STRESS PERIOD   3
 UBDSV1 SAVING "FLOW FRONT FACE " ON UNIT  53 AT TIME STEP 60, STRESS PERIOD   3
 UBDSV1 SAVING "FLOW LOWER FACE " ON UNIT  53 AT TIME STEP 60, STRESS PERIOD   3
1
              HEAD IN LAYER   1 AT END OF TIME STEP  60 IN STRESS PERIOD    3
  ---------------------------------------------------------------------------

            1           2           3           4           5           6           7           8           9          10
 ........................................................................................................................
   1    9.999       9.593       9.116       8.509       7.729       6.742       5.489       3.933       2.086      1.8380E-03
   2    9.999       9.569       9.060       8.412       7.603       6.642       5.429       3.903       2.074      1.8269E-03
   3    9.999       9.521       8.939       8.179       7.263       6.403       5.300       3.844       2.052      1.8056E-03
   4    9.999       9.459       8.760       7.754       6.435       5.963       5.107       3.767       2.026      1.7805E-03
   5    9.999       9.419       8.616       7.221       3.550       5.401       4.951       3.719       2.012      1.7669E-03
   6    9.999       9.459       8.761       7.756       6.436       5.964       5.108       3.768       2.026      1.7808E-03
   7    9.999       9.523       8.942       8.183       7.268       6.407       5.303       3.846       2.053      1.8065E-03
   8    9.999       9.574       9.069       8.424       7.617       6.655       5.438       3.909       2.077      1.8292E-03
   9    9.999       9.604       9.138       8.540       7.765       6.774       5.511       3.946       2.092      1.8435E-03
  10    9.999       9.617       9.166       8.586       7.820       6.820       5.541       3.962       2.098      1.8499E-03
1
              HEAD IN LAYER   2 AT END OF TIME STEP  60 IN STRESS PERIOD    3
  ---------------------------------------------------------------------------

            1           2           3           4           5           6           7           8           9          10
 ........................................................................................................................
   1    9.999       9.588       9.106       8.495       7.712       6.725       5.473       3.920       2.077      4.3459E-03
   2    9.999       9.564       9.050       8.397       7.585       6.624       5.412       3.890       2.065      4.3211E-03
   3    9.999       9.515       8.927       8.161       7.243       6.382       5.282       3.830       2.043      4.2739E-03
   4    9.999       9.451       8.746       7.735       6.413       5.941       5.088       3.752       2.016      4.2179E-03
   5    9.999       9.411       8.601       7.199       3.898       5.382       4.931       3.704       2.002      4.1877E-03
   6    9.999       9.452       8.747       7.736       6.415       5.943       5.089       3.753       2.017      4.2185E-03
   7    9.999       9.517       8.930       8.166       7.248       6.387       5.285       3.832       2.044      4.2759E-03
   8    9.999       9.568       9.058       8.409       7.599       6.637       5.422       3.895       2.068      4.3264E-03
   9    9.999       9.599       9.129       8.528       7.750       6.758       5.496       3.933       2.083      4.3583E-03
  10    9.999       9.612       9.158       8.574       7.806       6.805       5.527       3.950       2.090      4.3728E-03
1
              HEAD IN LAYER   3 AT END OF TIME STEP  60 IN STRESS PERIOD    3
  ---------------------------------------------------------------------------

            1           2           3           4           5           6           7           8           9          10
 ........................................................................................................................
   1    9.999       9.584       9.099       8.484       7.699       6.710       5.458       3.906       2.067      4.8715E-03
   2    9.999       9.560       9.041       8.385       7.570       6.608       5.397       3.876       2.055      4.8434E-03
   3    9.999       9.510       8.917       8.147       7.226       6.364       5.265       3.815       2.033      4.7898E-03
   4    9.999       9.446       8.735       7.719       6.400       5.922       5.070       3.737       2.006      4.7265E-03
   5    9.999       9.406       8.589       7.187       4.232       5.369       4.913       3.688       1.991      4.6925E-03
   6    9.999       9.447       8.736       7.720       6.402       5.923       5.071       3.738       2.006      4.7272E-03
   7    9.999       9.512       8.921       8.152       7.231       6.369       5.268       3.817       2.034      4.7921E-03
   8    9.999       9.564       9.050       8.398       7.585       6.621       5.406       3.882       2.058      4.8495E-03
   9    9.999       9.595       9.121       8.517       7.737       6.744       5.482       3.920       2.074      4.8859E-03
  10    9.999       9.609       9.151       8.564       7.794       6.791       5.513       3.937       2.081      4.9025E-03
1
              HEAD IN LAYER   4 AT END OF TIME STEP  60 IN STRESS PERIOD    3
  ---------------------------------------------------------------------------

            1           2           3           4           5           6           7           8           9          10
 ........................................................................................................................
   1    9.999       9.582       9.094       8.476       7.690       6.700       5.448       3.898       2.061      4.9257E-03
   2    9.999       9.557       9.036       8.377       7.560       6.597       5.386       3.867       2.049      4.8968E-03
   3    9.999       9.507       8.911       8.138       7.215       6.353       5.253       3.805       2.026      4.8420E-03
   4    9.999       9.442       8.728       7.708       6.394       5.909       5.058       3.727       1.999      4.7773E-03
   5    9.999       9.402       8.581       7.181       4.444       5.363       4.901       3.678       1.984      4.7427E-03
   6    9.999       9.443       8.729       7.710       6.395       5.911       5.059       3.727       1.999      4.7781E-03
   7    9.999       9.509       8.915       8.143       7.220       6.358       5.257       3.808       2.027      4.8444E-03
   8    9.999       9.562       9.045       8.390       7.575       6.611       5.396       3.873       2.052      4.9032E-03
   9    9.999       9.593       9.117       8.511       7.729       6.734       5.472       3.912       2.067      4.9406E-03
  10    9.999       9.607       9.147       8.558       7.786       6.783       5.504       3.929       2.074      4.9577E-03
1
              HEAD IN LAYER   5 AT END OF TIME STEP  60 IN STRESS PERIOD    3
  ---------------------------------------------------------------------------

            1           2           3           4           5           6           7           8           9          10
 ........................................................................................................................
   1    9.999       9.580       9.091       8.473       7.685       6.695       5.443       3.893       2.058      4.9267E-03
   2    9.999       9.555       9.033       8.372       7.555       6.592       5.381       3.862       2.046      4.8976E-03
   3    9.999       9.505       8.908       8.133       7.209       6.347       5.248       3.801       2.023      4.8424E-03
   4    9.999       9.441       8.724       7.703       6.391       5.903       5.052       3.722       1.995      4.7774E-03
   5    9.999       9.400       8.577       7.178       4.547       5.360       4.895       3.673       1.981      4.7426E-03
   6    9.999       9.441       8.725       7.704       6.393       5.905       5.053       3.722       1.996      4.7782E-03
   7    9.999       9.507       8.911       8.138       7.215       6.352       5.252       3.803       2.024      4.8449E-03
   8    9.999       9.560       9.042       8.386       7.570       6.606       5.391       3.868       2.048      4.9041E-03
   9    9.999       9.592       9.114       8.507       7.725       6.730       5.468       3.908       2.064      4.9418E-03
  10    9.999       9.606       9.145       8.555       7.782       6.778       5.500       3.925       2.071      4.9591E-03

 HEAD WILL BE SAVED ON UNIT   51 AT END OF TIME STEP   60, STRESS PERIOD    3

 DRAWDOWN WILL BE SAVED ON UNIT   52 AT END OF TIME STEP   60, STRESS PERIOD    3
1
  VOLUMETRIC BUDGET FOR ENTIRE MODEL AT END OF TIME STEP   60, STRESS PERIOD   3
  ------------------------------------------------------------------------------

     CUMULATIVE VOLUMES      L**3       RATES FOR THIS TIME STEP      L**3/T
     ------------------                 ------------------------

           IN:                                      IN:
           ---                                      ---
             STORAGE =      406584.7812               STORAGE =        1248.3362
       CONSTANT HEAD =           0.0000         CONSTANT HEAD =           0.0000
               WELLS =           0.0000                 WELLS =           0.0000
     HEAD DEP BOUNDS =       13180.3223       HEAD DEP BOUNDS =         283.3147

            TOTAL IN =      419765.0938              TOTAL IN =        1531.6509

          OUT:                                     OUT:
          ----                                     ----
             STORAGE =           0.0000               STORAGE =           0.0000
       CONSTANT HEAD =           0.0000         CONSTANT HEAD =           0.0000
               WELLS =       30000.0000                 WELLS =         500.0000
     HEAD DEP BOUNDS =      389766.0938       HEAD DEP BOUNDS =        1031.6521

           TOTAL OUT =      419766.0938             TOTAL OUT =        1531.6521

            IN - OUT =          -1.0000              IN - OUT =      -1.2207E-03

 PERCENT DISCREPANCY =          -0.00     PERCENT DISCREPANCY =          -0.00






         TIME SUMMARY AT END OF TIME STEP   60 IN STRESS PERIOD    3
                    SECONDS     MINUTES      HOURS       DAYS        YEARS
                    -----------------------------------------------------------
   TIME STEP LENGTH  86400.      1440.0      24.000      1.0000     2.73785E-03
 STRESS PERIOD TIME 5.18400E+06  86400.      1440.0      60.000     0.16427    
         TOTAL TIME 1.39104E+07 2.31840E+05  3864.0      161.00     0.44079    
1
 
 SOLVING FOR HEAD 

 OUTPUT CONTROL FOR STRESS PERIOD    3   TIME STEP   61
    SAVE HEAD FOR ALL LAYERS
    SAVE DRAWDOWN FOR ALL LAYERS
    SAVE BUDGET
    PRINT HEAD FOR ALL LAYERS
    PRINT BUDGET
 UBDSV1 SAVING "         STORAGE" ON UNIT  53 AT TIME STEP 61, STRESS PERIOD   3
 UBDSV2 SAVING "   CONSTANT HEAD" ON UNIT  53 AT TIME STEP 61, STRESS PERIOD   3
 UBDSV1 SAVING "FLOW RIGHT FACE " ON UNIT  53 AT TIME STEP 61, STRESS PERIOD   3
 UBDSV1 SAVING "FLOW FRONT FACE " ON UNIT  53 AT TIME STEP 61, STRESS PERIOD   3
 UBDSV1 SAVING "FLOW LOWER FACE " ON UNIT  53 AT TIME STEP 61, STRESS PERIOD   3
1
              HEAD IN LAYER   1 AT END OF TIME STEP  61 IN STRESS PERIOD    3
  ---------------------------------------------------------------------------

            1           2           3           4           5           6           7           8           9          10
 ........................................................................................................................
   1    9.999       9.588       9.106       8.494       7.711       6.723       5.472       3.919       2.078      1.8307E-03
   2    9.999       9.564       9.049       8.396       7.584       6.623       5.411       3.889       2.066      1.8194E-03
   3    9.999       9.515       8.927       8.161       7.241       6.380       5.280       3.829       2.044      1.7977E-03
   4    9.999       9.451       8.746       7.734       6.410       5.938       5.085       3.751       2.017      1.7720E-03
   5    9.999       9.411       8.601       7.199       3.522       5.375       4.928       3.702       2.003      1.7583E-03
   6    9.999       9.452       8.747       7.735       6.412       5.940       5.086       3.751       2.017      1.7723E-03
   7    9.999       9.517       8.930       8.165       7.247       6.385       5.283       3.831       2.045      1.7986E-03
   8    9.999       9.568       9.058       8.409       7.598       6.636       5.420       3.895       2.069      1.8218E-03
   9    9.999       9.599       9.128       8.527       7.749       6.757       5.495       3.933       2.084      1.8365E-03
  10    9.999       9.612       9.157       8.573       7.805       6.804       5.526       3.950       2.091      1.8433E-03
1
              HEAD IN LAYER   2 AT END OF TIME STEP  61 IN STRESS PERIOD    3
  ---------------------------------------------------------------------------

            1           2           3           4           5           6           7           8           9          10
 ........................................................................................................................
   1    9.999       9.583       9.096       8.480       7.695       6.706       5.456       3.906       2.070      4.3300E-03
   2    9.999       9.558       9.038       8.381       7.566       6.604       5.394       3.876       2.058      4.3046E-03
   3    9.999       9.509       8.914       8.143       7.221       6.360       5.262       3.814       2.035      4.2562E-03
   4    9.999       9.444       8.732       7.714       6.389       5.917       5.066       3.736       2.008      4.1992E-03
   5    9.999       9.404       8.586       7.178       3.870       5.356       4.909       3.687       1.993      4.1686E-03
   6    9.999       9.445       8.733       7.716       6.391       5.918       5.067       3.736       2.008      4.1999E-03
   7    9.999       9.510       8.918       8.148       7.227       6.365       5.265       3.817       2.036      4.2584E-03
   8    9.999       9.563       9.048       8.394       7.581       6.618       5.404       3.881       2.060      4.3101E-03
   9    9.999       9.594       9.119       8.514       7.734       6.741       5.480       3.920       2.076      4.3431E-03
  10    9.999       9.608       9.149       8.561       7.791       6.789       5.511       3.937       2.083      4.3581E-03
1
              HEAD IN LAYER   3 AT END OF TIME STEP  61 IN STRESS PERIOD    3
  ---------------------------------------------------------------------------

            1           2           3           4           5           6           7           8           9          10
 ........................................................................................................................
   1    9.999       9.579       9.088       8.469       7.681       6.691       5.441       3.893       2.060      4.8539E-03
   2    9.999       9.554       9.030       8.369       7.551       6.588       5.379       3.862       2.048      4.8250E-03
   3    9.999       9.504       8.905       8.129       7.204       6.342       5.245       3.800       2.024      4.7702E-03
   4    9.999       9.439       8.721       7.698       6.376       5.897       5.048       3.721       1.997      4.7057E-03
   5    9.999       9.398       8.574       7.165       4.205       5.343       4.891       3.672       1.982      4.6712E-03
   6    9.999       9.439       8.722       7.700       6.378       5.899       5.050       3.721       1.997      4.7065E-03
   7    9.999       9.506       8.908       8.135       7.210       6.347       5.249       3.802       2.025      4.7727E-03
   8    9.999       9.559       9.040       8.382       7.567       6.602       5.389       3.868       2.050      4.8315E-03
   9    9.999       9.591       9.112       8.504       7.721       6.727       5.466       3.908       2.066      4.8690E-03
  10    9.999       9.604       9.142       8.552       7.779       6.775       5.498       3.925       2.074      4.8862E-03
1
              HEAD IN LAYER   4 AT END OF TIME STEP  61 IN STRESS PERIOD    3
  ---------------------------------------------------------------------------

            1           2           3           4           5           6           7           8           9          10
 ........................................................................................................................
   1    9.999       9.576       9.083       8.462       7.672       6.681       5.431       3.885       2.054      4.9079E-03
   2    9.999       9.551       9.024       8.361       7.541       6.578       5.368       3.853       2.041      4.8783E-03
   3    9.999       9.501       8.898       8.120       7.193       6.331       5.234       3.791       2.018      4.8222E-03
   4    9.999       9.435       8.714       7.688       6.369       5.885       5.036       3.711       1.990      4.7564E-03
   5    9.999       9.394       8.567       7.159       4.417       5.337       4.879       3.662       1.975      4.7213E-03
   6    9.999       9.436       8.715       7.690       6.371       5.887       5.038       3.711       1.990      4.7572E-03
   7    9.999       9.502       8.902       8.125       7.199       6.336       5.238       3.793       2.019      4.8248E-03
   8    9.999       9.556       9.034       8.375       7.557       6.592       5.379       3.859       2.044      4.8850E-03
   9    9.999       9.588       9.107       8.497       7.713       6.717       5.456       3.899       2.060      4.9236E-03
  10    9.999       9.602       9.138       8.546       7.771       6.767       5.489       3.917       2.068      4.9412E-03
1
              HEAD IN LAYER   5 AT END OF TIME STEP  61 IN STRESS PERIOD    3
  ---------------------------------------------------------------------------

            1           2           3           4           5           6           7           8           9          10
 ........................................................................................................................
   1    9.999       9.575       9.081       8.458       7.668       6.676       5.426       3.880       2.050      4.9090E-03
   2    9.999       9.550       9.022       8.357       7.536       6.572       5.363       3.849       2.038      4.8791E-03
   3    9.999       9.499       8.895       8.116       7.188       6.325       5.228       3.786       2.014      4.8227E-03
   4    9.999       9.433       8.710       7.683       6.367       5.879       5.030       3.706       1.987      4.7565E-03
   5    9.999       9.392       8.563       7.157       4.521       5.335       4.873       3.656       1.972      4.7212E-03
   6    9.999       9.434       8.711       7.684       6.369       5.880       5.032       3.706       1.987      4.7574E-03
   7    9.999       9.501       8.899       8.121       7.194       6.330       5.232       3.788       2.015      4.8253E-03
   8    9.999       9.555       9.032       8.371       7.552       6.587       5.374       3.855       2.041      4.8859E-03
   9    9.999       9.587       9.105       8.494       7.708       6.713       5.452       3.895       2.057      4.9248E-03
  10    9.999       9.601       9.136       8.542       7.767       6.762       5.485       3.913       2.064      4.9426E-03

 HEAD WILL BE SAVED ON UNIT   51 AT END OF TIME STEP   61, STRESS PERIOD    3

 DRAWDOWN WILL BE SAVED ON UNIT   52 AT END OF TIME STEP   61, STRESS PERIOD    3
1
  VOLUMETRIC BUDGET FOR ENTIRE MODEL AT END OF TIME STEP   61, STRESS PERIOD   3
  ------------------------------------------------------------------------------

     CUMULATIVE VOLUMES      L**3       RATES FOR THIS TIME STEP      L**3/T
     ------------------                 ------------------------

           IN:                                      IN:
           ---                                      ---
             STORAGE =      407825.4375               STORAGE =        1240.6705
       CONSTANT HEAD =           0.0000         CONSTANT HEAD =           0.0000
               WELLS =           0.0000                 WELLS =           0.0000
     HEAD DEP BOUNDS =       13467.2109       HEAD DEP BOUNDS =         286.8882

            TOTAL IN =      421292.6562              TOTAL IN =        1527.5587

          OUT:                                     OUT:
          ----                                     ----
             STORAGE =           0.0000               STORAGE =           0.0000
       CONSTANT HEAD =           0.0000         CONSTANT HEAD =           0.0000
               WELLS =       30500.0000                 WELLS =         500.0000
     HEAD DEP BOUNDS =      390793.6562       HEAD DEP BOUNDS =        1027.5663

           TOTAL OUT =      421293.6562             TOTAL OUT =        1527.5663

            IN - OUT =          -1.0000              IN - OUT =      -7.5684E-03

 PERCENT DISCREPANCY =          -0.00     PERCENT DISCREPANCY =          -0.00






         TIME SUMMARY AT END OF TIME STEP   61 IN STRESS PERIOD    3
                    SECONDS     MINUTES      HOURS       DAYS        YEARS
                    -----------------------------------------------------------
   TIME STEP LENGTH  86400.      1440.0      24.000      1.0000     2.73785E-03
 STRESS PERIOD TIME 5.27040E+06  87840.      1464.0      61.000     0.16701    
         TOTAL TIME 1.39968E+07 2.33280E+05  3888.0      162.00     0.44353    
1
 
 SOLVING FOR HEAD 

 OUTPUT CONTROL FOR STRESS PERIOD    3   TIME STEP   62
    SAVE HEAD FOR ALL LAYERS
    SAVE DRAWDOWN FOR ALL LAYERS
    SAVE BUDGET
    PRINT HEAD FOR ALL LAYERS
    PRINT BUDGET
 UBDSV1 SAVING "         STORAGE" ON UNIT  53 AT TIME STEP 62, STRESS PERIOD   3
 UBDSV2 SAVING "   CONSTANT HEAD" ON UNIT  53 AT TIME STEP 62, STRESS PERIOD   3
 UBDSV1 SAVING "FLOW RIGHT FACE " ON UNIT  53 AT TIME STEP 62, STRESS PERIOD   3
 UBDSV1 SAVING "FLOW FRONT FACE " ON UNIT  53 AT TIME STEP 62, STRESS PERIOD   3
 UBDSV1 SAVING "FLOW LOWER FACE " ON UNIT  53 AT TIME STEP 62, STRESS PERIOD   3
1
              HEAD IN LAYER   1 AT END OF TIME STEP  62 IN STRESS PERIOD    3
  ---------------------------------------------------------------------------

            1           2           3           4           5           6           7           8           9          10
 ........................................................................................................................
   1    9.999       9.583       9.096       8.480       7.694       6.705       5.455       3.906       2.071      1.8236E-03
   2    9.999       9.558       9.038       8.380       7.565       6.603       5.393       3.875       2.059      1.8119E-03
   3    9.999       9.509       8.914       8.143       7.220       6.358       5.260       3.814       2.035      1.7897E-03
   4    9.999       9.444       8.732       7.714       6.386       5.914       5.064       3.734       2.008      1.7635E-03
   5    9.999       9.404       8.586       7.178       3.495       5.349       4.906       3.685       1.993      1.7497E-03
   6    9.999       9.445       8.733       7.715       6.388       5.915       5.065       3.735       2.008      1.7638E-03
   7    9.999       9.510       8.917       8.147       7.225       6.363       5.264       3.816       2.036      1.7907E-03
   8    9.999       9.563       9.047       8.393       7.580       6.616       5.403       3.881       2.061      1.8144E-03
   9    9.999       9.594       9.119       8.514       7.733       6.740       5.479       3.920       2.077      1.8297E-03
  10    9.999       9.608       9.149       8.561       7.790       6.788       5.511       3.937       2.084      1.8366E-03
1
              HEAD IN LAYER   2 AT END OF TIME STEP  62 IN STRESS PERIOD    3
  ---------------------------------------------------------------------------

            1           2           3           4           5           6           7           8           9          10
 ........................................................................................................................
   1    9.999       9.578       9.086       8.466       7.677       6.688       5.439       3.893       2.062      4.3143E-03
   2    9.999       9.553       9.027       8.365       7.547       6.585       5.376       3.862       2.050      4.2882E-03
   3    9.999       9.502       8.902       8.125       7.200       6.338       5.242       3.799       2.026      4.2387E-03
   4    9.999       9.437       8.718       7.694       6.365       5.892       5.045       3.720       1.999      4.1806E-03
   5    9.999       9.396       8.571       7.157       3.843       5.330       4.886       3.670       1.984      4.1495E-03
   6    9.999       9.438       8.719       7.696       6.367       5.894       5.046       3.720       1.999      4.1813E-03
   7    9.999       9.504       8.905       8.131       7.206       6.343       5.246       3.802       2.027      4.2410E-03
   8    9.999       9.557       9.037       8.379       7.563       6.599       5.387       3.868       2.053      4.2940E-03
   9    9.999       9.589       9.110       8.501       7.718       6.723       5.464       3.908       2.069      4.3280E-03
  10    9.999       9.603       9.140       8.549       7.775       6.772       5.496       3.925       2.076      4.3435E-03
1
              HEAD IN LAYER   3 AT END OF TIME STEP  62 IN STRESS PERIOD    3
  ---------------------------------------------------------------------------

            1           2           3           4           5           6           7           8           9          10
 ........................................................................................................................
   1    9.999       9.574       9.078       8.455       7.664       6.673       5.424       3.880       2.053      4.8364E-03
   2    9.999       9.548       9.019       8.353       7.532       6.569       5.361       3.848       2.040      4.8068E-03
   3    9.999       9.497       8.892       8.112       7.183       6.320       5.225       3.785       2.016      4.7507E-03
   4    9.999       9.432       8.707       7.678       6.352       5.873       5.027       3.705       1.988      4.6850E-03
   5    9.999       9.391       8.560       7.144       4.178       5.318       4.868       3.655       1.973      4.6501E-03
   6    9.999       9.432       8.708       7.680       6.354       5.875       5.028       3.706       1.989      4.6859E-03
   7    9.999       9.499       8.896       8.117       7.189       6.326       5.229       3.788       2.017      4.7534E-03
   8    9.999       9.553       9.029       8.367       7.548       6.583       5.371       3.855       2.043      4.8136E-03
   9    9.999       9.586       9.103       8.491       7.705       6.709       5.450       3.895       2.059      4.8522E-03
  10    9.999       9.600       9.134       8.539       7.764       6.759       5.483       3.913       2.067      4.8700E-03
1
              HEAD IN LAYER   4 AT END OF TIME STEP  62 IN STRESS PERIOD    3
  ---------------------------------------------------------------------------

            1           2           3           4           5           6           7           8           9          10
 ........................................................................................................................
   1    9.999       9.571       9.073       8.447       7.655       6.663       5.414       3.871       2.046      4.8903E-03
   2    9.999       9.545       9.013       8.345       7.522       6.558       5.351       3.839       2.033      4.8599E-03
   3    9.999       9.494       8.886       8.102       7.172       6.309       5.214       3.776       2.009      4.8026E-03
   4    9.999       9.428       8.700       7.668       6.346       5.861       5.015       3.695       1.981      4.7356E-03
   5    9.999       9.387       8.552       7.138       4.391       5.312       4.857       3.645       1.966      4.7000E-03
   6    9.999       9.429       8.701       7.670       6.348       5.863       5.016       3.696       1.982      4.7365E-03
   7    9.999       9.496       8.890       8.108       7.178       6.314       5.218       3.778       2.011      4.8054E-03
   8    9.999       9.551       9.024       8.360       7.539       6.573       5.361       3.846       2.036      4.8670E-03
   9    9.999       9.583       9.098       8.484       7.697       6.700       5.441       3.887       2.053      4.9067E-03
  10    9.999       9.598       9.129       8.533       7.756       6.750       5.474       3.905       2.061      4.9249E-03
1
              HEAD IN LAYER   5 AT END OF TIME STEP  62 IN STRESS PERIOD    3
  ---------------------------------------------------------------------------

            1           2           3           4           5           6           7           8           9          10
 ........................................................................................................................
   1    9.999       9.570       9.070       8.444       7.650       6.658       5.409       3.867       2.043      4.8913E-03
   2    9.999       9.544       9.011       8.341       7.518       6.553       5.345       3.835       2.030      4.8607E-03
   3    9.999       9.493       8.883       8.098       7.166       6.303       5.209       3.771       2.006      4.8031E-03
   4    9.999       9.426       8.696       7.663       6.343       5.855       5.009       3.690       1.978      4.7357E-03
   5    9.999       9.385       8.548       7.136       4.495       5.310       4.851       3.640       1.963      4.7000E-03
   6    9.999       9.427       8.698       7.665       6.345       5.856       5.010       3.691       1.978      4.7366E-03
   7    9.999       9.495       8.887       8.103       7.173       6.308       5.213       3.773       2.007      4.8059E-03
   8    9.999       9.549       9.021       8.356       7.534       6.568       5.356       3.841       2.033      4.8679E-03
   9    9.999       9.582       9.096       8.481       7.692       6.696       5.436       3.883       2.050      4.9079E-03
  10    9.999       9.597       9.127       8.530       7.752       6.746       5.469       3.901       2.058      4.9263E-03

 HEAD WILL BE SAVED ON UNIT   51 AT END OF TIME STEP   62, STRESS PERIOD    3

 DRAWDOWN WILL BE SAVED ON UNIT   52 AT END OF TIME STEP   62, STRESS PERIOD    3
1
  VOLUMETRIC BUDGET FOR ENTIRE MODEL AT END OF TIME STEP   62, STRESS PERIOD   3
  ------------------------------------------------------------------------------

     CUMULATIVE VOLUMES      L**3       RATES FOR THIS TIME STEP      L**3/T
     ------------------                 ------------------------

           IN:                                      IN:
           ---                                      ---
             STORAGE =      409058.5000               STORAGE =        1233.0536
       CONSTANT HEAD =           0.0000         CONSTANT HEAD =           0.0000
               WELLS =           0.0000                 WELLS =           0.0000
     HEAD DEP BOUNDS =       13757.6758       HEAD DEP BOUNDS =         290.4644

            TOTAL IN =      422816.1875              TOTAL IN =        1523.5179

          OUT:                                     OUT:
          ----                                     ----
             STORAGE =           0.0000               STORAGE =           0.0000
       CONSTANT HEAD =           0.0000         CONSTANT HEAD =           0.0000
               WELLS =       31000.0000                 WELLS =         500.0000
     HEAD DEP BOUNDS =      391817.1562       HEAD DEP BOUNDS =        1023.5043

           TOTAL OUT =      422817.1562             TOTAL OUT =        1523.5044

            IN - OUT =          -0.9688              IN - OUT =       1.3550E-02

 PERCENT DISCREPANCY =          -0.00     PERCENT DISCREPANCY =           0.00






         TIME SUMMARY AT END OF TIME STEP   62 IN STRESS PERIOD    3
                    SECONDS     MINUTES      HOURS       DAYS        YEARS
                    -----------------------------------------------------------
   TIME STEP LENGTH  86400.      1440.0      24.000      1.0000     2.73785E-03
 STRESS PERIOD TIME 5.35680E+06  89280.      1488.0      62.000     0.16975    
         TOTAL TIME 1.40832E+07 2.34720E+05  3912.0      163.00     0.44627    
1
 
 SOLVING FOR HEAD 

 OUTPUT CONTROL FOR STRESS PERIOD    3   TIME STEP   63
    SAVE HEAD FOR ALL LAYERS
    SAVE DRAWDOWN FOR ALL LAYERS
    SAVE BUDGET
    PRINT HEAD FOR ALL LAYERS
    PRINT BUDGET
 UBDSV1 SAVING "         STORAGE" ON UNIT  53 AT TIME STEP 63, STRESS PERIOD   3
 UBDSV2 SAVING "   CONSTANT HEAD" ON UNIT  53 AT TIME STEP 63, STRESS PERIOD   3
 UBDSV1 SAVING "FLOW RIGHT FACE " ON UNIT  53 AT TIME STEP 63, STRESS PERIOD   3
 UBDSV1 SAVING "FLOW FRONT FACE " ON UNIT  53 AT TIME STEP 63, STRESS PERIOD   3
 UBDSV1 SAVING "FLOW LOWER FACE " ON UNIT  53 AT TIME STEP 63, STRESS PERIOD   3
1
              HEAD IN LAYER   1 AT END OF TIME STEP  63 IN STRESS PERIOD    3
  ---------------------------------------------------------------------------

            1           2           3           4           5           6           7           8           9          10
 ........................................................................................................................
   1    9.999       9.577       9.085       8.465       7.676       6.687       5.438       3.893       2.063      1.8164E-03
   2    9.999       9.552       9.027       8.364       7.546       6.583       5.375       3.861       2.051      1.8044E-03
   3    9.999       9.502       8.901       8.125       7.198       6.336       5.240       3.799       2.027      1.7818E-03
   4    9.999       9.437       8.718       7.694       6.362       5.889       5.042       3.718       1.999      1.7552E-03
   5    9.999       9.396       8.571       7.157       3.469       5.324       4.883       3.669       1.984      1.7411E-03
   6    9.999       9.438       8.719       7.695       6.364       5.891       5.044       3.719       2.000      1.7555E-03
   7    9.999       9.504       8.905       8.130       7.204       6.341       5.244       3.801       2.028      1.7829E-03
   8    9.999       9.557       9.037       8.378       7.561       6.597       5.385       3.867       2.054      1.8071E-03
   9    9.999       9.589       9.109       8.500       7.717       6.722       5.463       3.908       2.070      1.8228E-03
  10    9.999       9.603       9.140       8.548       7.775       6.772       5.496       3.925       2.077      1.8300E-03
1
              HEAD IN LAYER   2 AT END OF TIME STEP  63 IN STRESS PERIOD    3
  ---------------------------------------------------------------------------

            1           2           3           4           5           6           7           8           9          10
 ........................................................................................................................
   1    9.999       9.572       9.076       8.451       7.660       6.670       5.422       3.880       2.055      4.2986E-03
   2    9.999       9.547       9.016       8.349       7.528       6.565       5.358       3.848       2.042      4.2718E-03
   3    9.999       9.496       8.889       8.108       7.179       6.316       5.222       3.784       2.018      4.2213E-03
   4    9.999       9.430       8.704       7.674       6.341       5.868       5.023       3.704       1.990      4.1621E-03
   5    9.999       9.389       8.557       7.136       3.817       5.305       4.864       3.654       1.975      4.1307E-03
   6    9.999       9.431       8.705       7.676       6.343       5.870       5.025       3.705       1.990      4.1629E-03
   7    9.999       9.498       8.893       8.113       7.185       6.322       5.226       3.787       2.019      4.2237E-03
   8    9.999       9.552       9.026       8.364       7.544       6.580       5.369       3.854       2.045      4.2780E-03
   9    9.999       9.584       9.100       8.487       7.702       6.706       5.448       3.895       2.061      4.3129E-03
  10    9.999       9.599       9.131       8.536       7.760       6.756       5.481       3.913       2.069      4.3290E-03
1
              HEAD IN LAYER   3 AT END OF TIME STEP  63 IN STRESS PERIOD    3
  ---------------------------------------------------------------------------

            1           2           3           4           5           6           7           8           9          10
 ........................................................................................................................
   1    9.999       9.568       9.068       8.440       7.646       6.655       5.407       3.867       2.045      4.8190E-03
   2    9.999       9.543       9.008       8.337       7.513       6.549       5.343       3.834       2.032      4.7886E-03
   3    9.999       9.491       8.880       8.094       7.162       6.299       5.206       3.770       2.008      4.7314E-03
   4    9.999       9.425       8.693       7.659       6.328       5.849       5.006       3.689       1.980      4.6646E-03
   5    9.999       9.383       8.545       7.123       4.152       5.293       4.847       3.639       1.964      4.6291E-03
   6    9.999       9.425       8.694       7.660       6.330       5.851       5.007       3.690       1.980      4.6655E-03
   7    9.999       9.493       8.884       8.099       7.168       6.304       5.210       3.773       2.009      4.7342E-03
   8    9.999       9.548       9.018       8.352       7.530       6.564       5.354       3.841       2.035      4.7958E-03
   9    9.999       9.581       9.093       8.477       7.689       6.692       5.434       3.883       2.052      4.8355E-03
  10    9.999       9.596       9.125       8.527       7.749       6.743       5.468       3.901       2.060      4.8538E-03
1
              HEAD IN LAYER   4 AT END OF TIME STEP  63 IN STRESS PERIOD    3
  ---------------------------------------------------------------------------

            1           2           3           4           5           6           7           8           9          10
 ........................................................................................................................
   1    9.999       9.566       9.063       8.433       7.637       6.645       5.397       3.858       2.039      4.8727E-03
   2    9.999       9.540       9.002       8.329       7.504       6.539       5.333       3.826       2.026      4.8416E-03
   3    9.999       9.488       8.873       8.085       7.151       6.287       5.195       3.761       2.001      4.7831E-03
   4    9.999       9.421       8.686       7.648       6.322       5.837       4.994       3.679       1.973      4.7149E-03
   5    9.999       9.380       8.538       7.118       4.365       5.287       4.835       3.629       1.958      4.6788E-03
   6    9.999       9.422       8.687       7.650       6.324       5.839       4.995       3.680       1.973      4.7159E-03
   7    9.999       9.490       8.877       8.090       7.157       6.293       5.199       3.764       2.003      4.7860E-03
   8    9.999       9.545       9.013       8.344       7.521       6.554       5.344       3.832       2.029      4.8490E-03
   9    9.999       9.579       9.089       8.471       7.681       6.683       5.425       3.874       2.046      4.8898E-03
  10    9.999       9.593       9.121       8.521       7.741       6.735       5.459       3.893       2.054      4.9087E-03
1
              HEAD IN LAYER   5 AT END OF TIME STEP  63 IN STRESS PERIOD    3
  ---------------------------------------------------------------------------

            1           2           3           4           5           6           7           8           9          10
 ........................................................................................................................
   1    9.999       9.565       9.060       8.429       7.633       6.640       5.393       3.854       2.036      4.8738E-03
   2    9.999       9.538       8.999       8.325       7.499       6.533       5.328       3.821       2.023      4.8424E-03
   3    9.999       9.486       8.870       8.080       7.145       6.281       5.189       3.756       1.998      4.7836E-03
   4    9.999       9.419       8.682       7.643       6.320       5.831       4.988       3.674       1.969      4.7150E-03
   5    9.999       9.378       8.534       7.116       4.469       5.285       4.829       3.624       1.954      4.6788E-03
   6    9.999       9.420       8.684       7.645       6.322       5.833       4.990       3.675       1.970      4.7160E-03
   7    9.999       9.488       8.874       8.086       7.152       6.287       5.194       3.759       1.999      4.7865E-03
   8    9.999       9.544       9.010       8.341       7.516       6.549       5.339       3.828       2.026      4.8500E-03
   9    9.999       9.577       9.086       8.467       7.676       6.679       5.420       3.870       2.043      4.8911E-03
  10    9.999       9.592       9.118       8.518       7.737       6.730       5.454       3.889       2.051      4.9101E-03

 HEAD WILL BE SAVED ON UNIT   51 AT END OF TIME STEP   63, STRESS PERIOD    3

 DRAWDOWN WILL BE SAVED ON UNIT   52 AT END OF TIME STEP   63, STRESS PERIOD    3
1
  VOLUMETRIC BUDGET FOR ENTIRE MODEL AT END OF TIME STEP   63, STRESS PERIOD   3
  ------------------------------------------------------------------------------

     CUMULATIVE VOLUMES      L**3       RATES FOR THIS TIME STEP      L**3/T
     ------------------                 ------------------------

           IN:                                      IN:
           ---                                      ---
             STORAGE =      410283.9688               STORAGE =        1225.4586
       CONSTANT HEAD =           0.0000         CONSTANT HEAD =           0.0000
               WELLS =           0.0000                 WELLS =           0.0000
     HEAD DEP BOUNDS =       14051.7051       HEAD DEP BOUNDS =         294.0294

            TOTAL IN =      424335.6875              TOTAL IN =        1519.4880

          OUT:                                     OUT:
          ----                                     ----
             STORAGE =           0.0000               STORAGE =           0.0000
       CONSTANT HEAD =           0.0000         CONSTANT HEAD =           0.0000
               WELLS =       31500.0000                 WELLS =         500.0000
     HEAD DEP BOUNDS =      392836.6250       HEAD DEP BOUNDS =        1019.4681

           TOTAL OUT =      424336.6250             TOTAL OUT =        1519.4681

            IN - OUT =          -0.9375              IN - OUT =       1.9897E-02

 PERCENT DISCREPANCY =          -0.00     PERCENT DISCREPANCY =           0.00






         TIME SUMMARY AT END OF TIME STEP   63 IN STRESS PERIOD    3
                    SECONDS     MINUTES      HOURS       DAYS        YEARS
                    -----------------------------------------------------------
   TIME STEP LENGTH  86400.      1440.0      24.000      1.0000     2.73785E-03
 STRESS PERIOD TIME 5.44320E+06  90720.      1512.0      63.000     0.17248    
         TOTAL TIME 1.41696E+07 2.36160E+05  3936.0      164.00     0.44901    
1
 
 SOLVING FOR HEAD 

 OUTPUT CONTROL FOR STRESS PERIOD    3   TIME STEP   64
    SAVE HEAD FOR ALL LAYERS
    SAVE DRAWDOWN FOR ALL LAYERS
    SAVE BUDGET
    PRINT HEAD FOR ALL LAYERS
    PRINT BUDGET
 UBDSV1 SAVING "         STORAGE" ON UNIT  53 AT TIME STEP 64, STRESS PERIOD   3
 UBDSV2 SAVING "   CONSTANT HEAD" ON UNIT  53 AT TIME STEP 64, STRESS PERIOD   3
 UBDSV1 SAVING "FLOW RIGHT FACE " ON UNIT  53 AT TIME STEP 64, STRESS PERIOD   3
 UBDSV1 SAVING "FLOW FRONT FACE " ON UNIT  53 AT TIME STEP 64, STRESS PERIOD   3
 UBDSV1 SAVING "FLOW LOWER FACE " ON UNIT  53 AT TIME STEP 64, STRESS PERIOD   3
1
              HEAD IN LAYER   1 AT END OF TIME STEP  64 IN STRESS PERIOD    3
  ---------------------------------------------------------------------------

            1           2           3           4           5           6           7           8           9          10
 ........................................................................................................................
   1    9.999       9.572       9.075       8.450       7.659       6.668       5.421       3.880       2.056      1.8093E-03
   2    9.999       9.547       9.016       8.348       7.527       6.564       5.357       3.847       2.043      1.7971E-03
   3    9.999       9.496       8.889       8.107       7.177       6.314       5.221       3.784       2.019      1.7738E-03
   4    9.999       9.430       8.704       7.674       6.338       5.865       5.021       3.702       1.990      1.7468E-03
   5    9.999       9.389       8.557       7.136       3.442       5.298       4.861       3.652       1.975      1.7325E-03
   6    9.999       9.431       8.705       7.675       6.340       5.867       5.022       3.703       1.991      1.7473E-03
   7    9.999       9.498       8.893       8.112       7.183       6.320       5.225       3.786       2.020      1.7749E-03
   8    9.999       9.552       9.026       8.363       7.543       6.578       5.368       3.854       2.046      1.8000E-03
   9    9.999       9.584       9.100       8.487       7.701       6.705       5.447       3.895       2.063      1.8159E-03
  10    9.999       9.599       9.131       8.536       7.760       6.756       5.481       3.913       2.070      1.8234E-03
1
              HEAD IN LAYER   2 AT END OF TIME STEP  64 IN STRESS PERIOD    3
  ---------------------------------------------------------------------------

            1           2           3           4           5           6           7           8           9          10
 ........................................................................................................................
   1    9.999       9.567       9.065       8.437       7.643       6.651       5.405       3.867       2.047      4.2830E-03
   2    9.999       9.541       9.005       8.334       7.509       6.546       5.341       3.834       2.034      4.2556E-03
   3    9.999       9.489       8.877       8.090       7.158       6.295       5.203       3.770       2.010      4.2040E-03
   4    9.999       9.423       8.690       7.655       6.317       5.844       5.002       3.688       1.981      4.1438E-03
   5    9.999       9.382       8.542       7.115       3.790       5.280       4.843       3.638       1.966      4.1119E-03
   6    9.999       9.424       8.691       7.656       6.320       5.846       5.004       3.689       1.982      4.1447E-03
   7    9.999       9.492       8.881       8.096       7.164       6.300       5.207       3.772       2.011      4.2065E-03
   8    9.999       9.547       9.016       8.349       7.526       6.561       5.352       3.841       2.037      4.2621E-03
   9    9.999       9.580       9.091       8.474       7.685       6.689       5.432       3.883       2.054      4.2980E-03
  10    9.999       9.594       9.123       8.524       7.745       6.740       5.466       3.901       2.062      4.3145E-03
1
              HEAD IN LAYER   3 AT END OF TIME STEP  64 IN STRESS PERIOD    3
  ---------------------------------------------------------------------------

            1           2           3           4           5           6           7           8           9          10
 ........................................................................................................................
   1    9.999       9.563       9.058       8.426       7.629       6.637       5.390       3.854       2.038      4.8016E-03
   2    9.999       9.537       8.997       8.322       7.495       6.530       5.325       3.821       2.025      4.7706E-03
   3    9.999       9.485       8.867       8.076       7.141       6.277       5.186       3.756       2.000      4.7121E-03
   4    9.999       9.418       8.679       7.639       6.305       5.826       4.985       3.673       1.971      4.6442E-03
   5    9.999       9.376       8.531       7.103       4.126       5.268       4.825       3.623       1.956      4.6083E-03
   6    9.999       9.418       8.681       7.641       6.307       5.827       4.986       3.674       1.971      4.6452E-03
   7    9.999       9.487       8.871       8.082       7.147       6.283       5.191       3.758       2.001      4.7151E-03
   8    9.999       9.542       9.008       8.337       7.512       6.545       5.337       3.828       2.028      4.7781E-03
   9    9.999       9.576       9.084       8.464       7.673       6.676       5.418       3.870       2.045      4.8189E-03
  10    9.999       9.591       9.116       8.515       7.734       6.727       5.453       3.889       2.053      4.8378E-03
1
              HEAD IN LAYER   4 AT END OF TIME STEP  64 IN STRESS PERIOD    3
  ---------------------------------------------------------------------------

            1           2           3           4           5           6           7           8           9          10
 ........................................................................................................................
   1    9.999       9.561       9.053       8.418       7.620       6.627       5.381       3.845       2.032      4.8552E-03
   2    9.999       9.534       8.991       8.314       7.485       6.519       5.315       3.812       2.018      4.8234E-03
   3    9.999       9.481       8.861       8.067       7.130       6.266       5.175       3.746       1.993      4.7637E-03
   4    9.999       9.414       8.672       7.629       6.299       5.813       4.973       3.663       1.964      4.6944E-03
   5    9.999       9.372       8.523       7.097       4.340       5.262       4.813       3.613       1.949      4.6579E-03
   6    9.999       9.415       8.674       7.631       6.301       5.815       4.975       3.664       1.965      4.6954E-03
   7    9.999       9.484       8.865       8.073       7.137       6.272       5.180       3.749       1.994      4.7668E-03
   8    9.999       9.540       9.002       8.329       7.503       6.535       5.327       3.819       2.021      4.8312E-03
   9    9.999       9.574       9.079       8.457       7.665       6.666       5.409       3.862       2.039      4.8731E-03
  10    9.999       9.589       9.112       8.508       7.726       6.719       5.444       3.881       2.047      4.8925E-03
1
              HEAD IN LAYER   5 AT END OF TIME STEP  64 IN STRESS PERIOD    3
  ---------------------------------------------------------------------------

            1           2           3           4           5           6           7           8           9          10
 ........................................................................................................................
   1    9.999       9.559       9.050       8.415       7.616       6.622       5.376       3.841       2.028      4.8563E-03
   2    9.999       9.533       8.988       8.310       7.480       6.514       5.310       3.807       2.015      4.8242E-03
   3    9.999       9.480       8.858       8.062       7.125       6.260       5.170       3.741       1.990      4.7642E-03
   4    9.999       9.412       8.669       7.624       6.296       5.807       4.967       3.658       1.961      4.6945E-03
   5    9.999       9.370       8.520       7.095       4.443       5.260       4.807       3.608       1.945      4.6579E-03
   6    9.999       9.413       8.670       7.626       6.298       5.809       4.969       3.659       1.961      4.6956E-03
   7    9.999       9.482       8.862       8.069       7.131       6.266       5.175       3.744       1.991      4.7673E-03
   8    9.999       9.538       9.000       8.326       7.498       6.530       5.322       3.815       2.018      4.8322E-03
   9    9.999       9.573       9.077       8.454       7.660       6.662       5.404       3.858       2.036      4.8744E-03
  10    9.999       9.588       9.110       8.505       7.722       6.714       5.440       3.877       2.044      4.8940E-03

 HEAD WILL BE SAVED ON UNIT   51 AT END OF TIME STEP   64, STRESS PERIOD    3

 DRAWDOWN WILL BE SAVED ON UNIT   52 AT END OF TIME STEP   64, STRESS PERIOD    3
1
  VOLUMETRIC BUDGET FOR ENTIRE MODEL AT END OF TIME STEP   64, STRESS PERIOD   3
  ------------------------------------------------------------------------------

     CUMULATIVE VOLUMES      L**3       RATES FOR THIS TIME STEP      L**3/T
     ------------------                 ------------------------

           IN:                                      IN:
           ---                                      ---
             STORAGE =      411501.8750               STORAGE =        1217.9088
       CONSTANT HEAD =           0.0000         CONSTANT HEAD =           0.0000
               WELLS =           0.0000                 WELLS =           0.0000
     HEAD DEP BOUNDS =       14349.2617       HEAD DEP BOUNDS =         297.5567

            TOTAL IN =      425851.1250              TOTAL IN =        1515.4655

          OUT:                                     OUT:
          ----                                     ----
             STORAGE =           0.0000               STORAGE =           0.0000
       CONSTANT HEAD =           0.0000         CONSTANT HEAD =           0.0000
               WELLS =       32000.0000                 WELLS =         500.0000
     HEAD DEP BOUNDS =      393852.0938       HEAD DEP BOUNDS =        1015.4547

           TOTAL OUT =      425852.0938             TOTAL OUT =        1515.4547

            IN - OUT =          -0.9688              IN - OUT =       1.0742E-02

 PERCENT DISCREPANCY =          -0.00     PERCENT DISCREPANCY =           0.00






         TIME SUMMARY AT END OF TIME STEP   64 IN STRESS PERIOD    3
                    SECONDS     MINUTES      HOURS       DAYS        YEARS
                    -----------------------------------------------------------
   TIME STEP LENGTH  86400.      1440.0      24.000      1.0000     2.73785E-03
 STRESS PERIOD TIME 5.52960E+06  92160.      1536.0      64.000     0.17522    
         TOTAL TIME 1.42560E+07 2.37600E+05  3960.0      165.00     0.45175    
1
 
 SOLVING FOR HEAD 

 OUTPUT CONTROL FOR STRESS PERIOD    3   TIME STEP   65
    SAVE HEAD FOR ALL LAYERS
    SAVE DRAWDOWN FOR ALL LAYERS
    SAVE BUDGET
    PRINT HEAD FOR ALL LAYERS
    PRINT BUDGET
 UBDSV1 SAVING "         STORAGE" ON UNIT  53 AT TIME STEP 65, STRESS PERIOD   3
 UBDSV2 SAVING "   CONSTANT HEAD" ON UNIT  53 AT TIME STEP 65, STRESS PERIOD   3
 UBDSV1 SAVING "FLOW RIGHT FACE " ON UNIT  53 AT TIME STEP 65, STRESS PERIOD   3
 UBDSV1 SAVING "FLOW FRONT FACE " ON UNIT  53 AT TIME STEP 65, STRESS PERIOD   3
 UBDSV1 SAVING "FLOW LOWER FACE " ON UNIT  53 AT TIME STEP 65, STRESS PERIOD   3
1
              HEAD IN LAYER   1 AT END OF TIME STEP  65 IN STRESS PERIOD    3
  ---------------------------------------------------------------------------

            1           2           3           4           5           6           7           8           9          10
 ........................................................................................................................
   1    9.999       9.567       9.065       8.436       7.642       6.650       5.404       3.866       2.048      1.8023E-03
   2    9.999       9.541       9.005       8.333       7.508       6.544       5.339       3.834       2.035      1.7896E-03
   3    9.999       9.489       8.876       8.089       7.156       6.293       5.201       3.769       2.011      1.7660E-03
   4    9.999       9.423       8.690       7.654       6.314       5.841       5.000       3.687       1.982      1.7386E-03
   5    9.999       9.382       8.543       7.115       3.416       5.273       4.840       3.636       1.966      1.7240E-03
   6    9.999       9.424       8.691       7.656       6.317       5.843       5.001       3.687       1.982      1.7390E-03
   7    9.999       9.491       8.880       8.095       7.163       6.298       5.205       3.771       2.012      1.7672E-03
   8    9.999       9.546       9.015       8.348       7.525       6.559       5.351       3.840       2.038      1.7927E-03
   9    9.999       9.580       9.091       8.474       7.685       6.688       5.431       3.883       2.056      1.8091E-03
  10    9.999       9.594       9.122       8.524       7.745       6.740       5.465       3.901       2.064      1.8168E-03
1
              HEAD IN LAYER   2 AT END OF TIME STEP  65 IN STRESS PERIOD    3
  ---------------------------------------------------------------------------

            1           2           3           4           5           6           7           8           9          10
 ........................................................................................................................
   1    9.999       9.562       9.055       8.422       7.625       6.633       5.388       3.854       2.040      4.2674E-03
   2    9.999       9.536       8.994       8.318       7.491       6.526       5.323       3.820       2.027      4.2394E-03
   3    9.999       9.483       8.864       8.072       7.137       6.273       5.184       3.755       2.002      4.1867E-03
   4    9.999       9.416       8.676       7.635       6.294       5.820       4.981       3.672       1.973      4.1256E-03
   5    9.999       9.375       8.528       7.095       3.764       5.255       4.821       3.622       1.957      4.0933E-03
   6    9.999       9.417       8.678       7.637       6.296       5.822       4.983       3.673       1.973      4.1265E-03
   7    9.999       9.485       8.869       8.078       7.143       6.279       5.188       3.758       2.003      4.1895E-03
   8    9.999       9.541       9.005       8.334       7.508       6.542       5.335       3.828       2.030      4.2462E-03
   9    9.999       9.575       9.082       8.461       7.670       6.673       5.416       3.870       2.047      4.2831E-03
  10    9.999       9.590       9.114       8.512       7.731       6.725       5.451       3.889       2.055      4.3002E-03
1
              HEAD IN LAYER   3 AT END OF TIME STEP  65 IN STRESS PERIOD    3
  ---------------------------------------------------------------------------

            1           2           3           4           5           6           7           8           9          10
 ........................................................................................................................
   1    9.999       9.558       9.047       8.411       7.612       6.619       5.374       3.841       2.030      4.7844E-03
   2    9.999       9.531       8.986       8.306       7.476       6.510       5.308       3.807       2.017      4.7526E-03
   3    9.999       9.478       8.855       8.059       7.120       6.256       5.167       3.741       1.992      4.6930E-03
   4    9.999       9.411       8.666       7.619       6.281       5.802       4.964       3.657       1.962      4.6239E-03
   5    9.999       9.369       8.517       7.082       4.100       5.243       4.803       3.607       1.947      4.5876E-03
   6    9.999       9.411       8.667       7.621       6.284       5.804       4.966       3.658       1.963      4.6250E-03
   7    9.999       9.481       8.859       8.065       7.127       6.262       5.172       3.744       1.993      4.6962E-03
   8    9.999       9.537       8.997       8.322       7.494       6.527       5.320       3.814       2.020      4.7605E-03
   9    9.999       9.571       9.075       8.451       7.657       6.659       5.403       3.858       2.038      4.8025E-03
  10    9.999       9.587       9.108       8.502       7.719       6.711       5.438       3.877       2.046      4.8219E-03
1
              HEAD IN LAYER   4 AT END OF TIME STEP  65 IN STRESS PERIOD    3
  ---------------------------------------------------------------------------

            1           2           3           4           5           6           7           8           9          10
 ........................................................................................................................
   1    9.999       9.555       9.042       8.404       7.603       6.609       5.364       3.832       2.024      4.8378E-03
   2    9.999       9.528       8.980       8.298       7.466       6.500       5.297       3.798       2.011      4.8053E-03
   3    9.999       9.475       8.849       8.050       7.109       6.244       5.156       3.732       1.985      4.7444E-03
   4    9.999       9.407       8.659       7.609       6.275       5.790       4.952       3.648       1.956      4.6740E-03
   5    9.999       9.365       8.509       7.077       4.314       5.238       4.792       3.597       1.940      4.6370E-03
   6    9.999       9.408       8.660       7.611       6.278       5.792       4.954       3.649       1.956      4.6751E-03
   7    9.999       9.477       8.853       8.056       7.116       6.251       5.161       3.735       1.986      4.7477E-03
   8    9.999       9.534       8.992       8.314       7.485       6.517       5.310       3.806       2.014      4.8135E-03
   9    9.999       9.569       9.070       8.444       7.649       6.649       5.393       3.850       2.032      4.8565E-03
  10    9.999       9.584       9.103       8.496       7.711       6.703       5.429       3.869       2.040      4.8765E-03
1
              HEAD IN LAYER   5 AT END OF TIME STEP  65 IN STRESS PERIOD    3
  ---------------------------------------------------------------------------

            1           2           3           4           5           6           7           8           9          10
 ........................................................................................................................
   1    9.999       9.554       9.040       8.400       7.598       6.604       5.359       3.828       2.021      4.8389E-03
   2    9.999       9.527       8.977       8.294       7.462       6.495       5.292       3.794       2.007      4.8061E-03
   3    9.999       9.474       8.845       8.045       7.104       6.238       5.151       3.727       1.982      4.7449E-03
   4    9.999       9.405       8.655       7.604       6.273       5.784       4.947       3.643       1.952      4.6742E-03
   5    9.999       9.363       8.506       7.075       4.418       5.235       4.786       3.592       1.937      4.6371E-03
   6    9.999       9.406       8.657       7.606       6.275       5.786       4.948       3.644       1.953      4.6753E-03
   7    9.999       9.476       8.850       8.051       7.111       6.245       5.156       3.730       1.983      4.7482E-03
   8    9.999       9.533       8.989       8.311       7.480       6.511       5.305       3.801       2.011      4.8145E-03
   9    9.999       9.568       9.068       8.441       7.645       6.645       5.389       3.846       2.029      4.8578E-03
  10    9.999       9.583       9.101       8.493       7.707       6.698       5.425       3.865       2.037      4.8779E-03

 HEAD WILL BE SAVED ON UNIT   51 AT END OF TIME STEP   65, STRESS PERIOD    3

 DRAWDOWN WILL BE SAVED ON UNIT   52 AT END OF TIME STEP   65, STRESS PERIOD    3
1
  VOLUMETRIC BUDGET FOR ENTIRE MODEL AT END OF TIME STEP   65, STRESS PERIOD   3
  ------------------------------------------------------------------------------

     CUMULATIVE VOLUMES      L**3       RATES FOR THIS TIME STEP      L**3/T
     ------------------                 ------------------------

           IN:                                      IN:
           ---                                      ---
             STORAGE =      412712.2812               STORAGE =        1210.3918
       CONSTANT HEAD =           0.0000         CONSTANT HEAD =           0.0000
               WELLS =           0.0000                 WELLS =           0.0000
     HEAD DEP BOUNDS =       14650.3438       HEAD DEP BOUNDS =         301.0824

            TOTAL IN =      427362.6250              TOTAL IN =        1511.4742

          OUT:                                     OUT:
          ----                                     ----
             STORAGE =           0.0000               STORAGE =           0.0000
       CONSTANT HEAD =           0.0000         CONSTANT HEAD =           0.0000
               WELLS =       32500.0000                 WELLS =         500.0000
     HEAD DEP BOUNDS =      394863.5625       HEAD DEP BOUNDS =        1011.4666

           TOTAL OUT =      427363.5625             TOTAL OUT =        1511.4666

            IN - OUT =          -0.9375              IN - OUT =       7.6904E-03

 PERCENT DISCREPANCY =          -0.00     PERCENT DISCREPANCY =           0.00






         TIME SUMMARY AT END OF TIME STEP   65 IN STRESS PERIOD    3
                    SECONDS     MINUTES      HOURS       DAYS        YEARS
                    -----------------------------------------------------------
   TIME STEP LENGTH  86400.      1440.0      24.000      1.0000     2.73785E-03
 STRESS PERIOD TIME 5.61600E+06  93600.      1560.0      65.000     0.17796    
         TOTAL TIME 1.43424E+07 2.39040E+05  3984.0      166.00     0.45448    
1
 
 SOLVING FOR HEAD 

 OUTPUT CONTROL FOR STRESS PERIOD    3   TIME STEP   66
    SAVE HEAD FOR ALL LAYERS
    SAVE DRAWDOWN FOR ALL LAYERS
    SAVE BUDGET
    PRINT HEAD FOR ALL LAYERS
    PRINT BUDGET
 UBDSV1 SAVING "         STORAGE" ON UNIT  53 AT TIME STEP 66, STRESS PERIOD   3
 UBDSV2 SAVING "   CONSTANT HEAD" ON UNIT  53 AT TIME STEP 66, STRESS PERIOD   3
 UBDSV1 SAVING "FLOW RIGHT FACE " ON UNIT  53 AT TIME STEP 66, STRESS PERIOD   3
 UBDSV1 SAVING "FLOW FRONT FACE " ON UNIT  53 AT TIME STEP 66, STRESS PERIOD   3
 UBDSV1 SAVING "FLOW LOWER FACE " ON UNIT  53 AT TIME STEP 66, STRESS PERIOD   3
1
              HEAD IN LAYER   1 AT END OF TIME STEP  66 IN STRESS PERIOD    3
  ---------------------------------------------------------------------------

            1           2           3           4           5           6           7           8           9          10
 ........................................................................................................................
   1    9.999       9.562       9.055       8.422       7.624       6.632       5.387       3.853       2.041      1.7953E-03
   2    9.999       9.535       8.994       8.317       7.490       6.525       5.322       3.820       2.028      1.7824E-03
   3    9.999       9.483       8.864       8.071       7.135       6.271       5.182       3.754       2.002      1.7583E-03
   4    9.999       9.416       8.676       7.634       6.291       5.817       4.979       3.671       1.973      1.7303E-03
   5    9.999       9.375       8.528       7.095       3.391       5.248       4.818       3.620       1.958      1.7157E-03
   6    9.999       9.417       8.678       7.636       6.293       5.819       4.980       3.672       1.974      1.7307E-03
   7    9.999       9.485       8.868       8.077       7.142       6.277       5.186       3.757       2.004      1.7596E-03
   8    9.999       9.541       9.005       8.333       7.507       6.541       5.333       3.827       2.031      1.7856E-03
   9    9.999       9.575       9.081       8.460       7.669       6.672       5.416       3.870       2.049      1.8025E-03
  10    9.999       9.590       9.114       8.511       7.730       6.724       5.451       3.889       2.057      1.8102E-03
1
              HEAD IN LAYER   2 AT END OF TIME STEP  66 IN STRESS PERIOD    3
  ---------------------------------------------------------------------------

            1           2           3           4           5           6           7           8           9          10
 ........................................................................................................................
   1    9.999       9.557       9.045       8.408       7.608       6.615       5.372       3.841       2.033      4.2520E-03
   2    9.999       9.530       8.983       8.302       7.472       6.507       5.305       3.807       2.019      4.2233E-03
   3    9.999       9.477       8.852       8.055       7.116       6.252       5.164       3.740       1.994      4.1696E-03
   4    9.999       9.409       8.663       7.616       6.271       5.797       4.961       3.656       1.964      4.1075E-03
   5    9.999       9.367       8.514       7.074       3.738       5.230       4.800       3.606       1.948      4.0748E-03
   6    9.999       9.410       8.664       7.618       6.273       5.799       4.962       3.657       1.964      4.1084E-03
   7    9.999       9.479       8.856       8.061       7.123       6.258       5.169       3.743       1.995      4.1725E-03
   8    9.999       9.536       8.994       8.319       7.490       6.523       5.317       3.814       2.022      4.2305E-03
   9    9.999       9.570       9.072       8.448       7.654       6.656       5.401       3.858       2.040      4.2684E-03
  10    9.999       9.585       9.105       8.499       7.716       6.709       5.436       3.878       2.049      4.2859E-03
1
              HEAD IN LAYER   3 AT END OF TIME STEP  66 IN STRESS PERIOD    3
  ---------------------------------------------------------------------------

            1           2           3           4           5           6           7           8           9          10
 ........................................................................................................................
   1    9.999       9.553       9.037       8.397       7.595       6.601       5.357       3.828       2.023      4.7672E-03
   2    9.999       9.526       8.975       8.290       7.458       6.491       5.290       3.794       2.009      4.7347E-03
   3    9.999       9.472       8.843       8.041       7.099       6.234       5.148       3.726       1.984      4.6740E-03
   4    9.999       9.404       8.652       7.600       6.258       5.779       4.943       3.642       1.954      4.6038E-03
   5    9.999       9.362       8.503       7.062       4.075       5.219       4.782       3.591       1.938      4.5671E-03
   6    9.999       9.405       8.654       7.602       6.261       5.781       4.945       3.643       1.954      4.6050E-03
   7    9.999       9.474       8.847       8.048       7.107       6.241       5.153       3.729       1.985      4.6773E-03
   8    9.999       9.532       8.987       8.307       7.476       6.508       5.303       3.801       2.013      4.7430E-03
   9    9.999       9.567       9.065       8.438       7.641       6.642       5.387       3.846       2.031      4.7861E-03
  10    9.999       9.582       9.099       8.490       7.704       6.696       5.423       3.866       2.040      4.8061E-03
1
              HEAD IN LAYER   4 AT END OF TIME STEP  66 IN STRESS PERIOD    3
  ---------------------------------------------------------------------------

            1           2           3           4           5           6           7           8           9          10
 ........................................................................................................................
   1    9.999       9.550       9.032       8.390       7.586       6.591       5.348       3.819       2.017      4.8205E-03
   2    9.999       9.523       8.969       8.283       7.448       6.481       5.280       3.785       2.003      4.7872E-03
   3    9.999       9.469       8.836       8.032       7.089       6.223       5.137       3.717       1.977      4.7252E-03
   4    9.999       9.400       8.645       7.590       6.253       5.767       4.932       3.632       1.947      4.6537E-03
   5    9.999       9.358       8.495       7.057       4.289       5.213       4.771       3.581       1.931      4.6163E-03
   6    9.999       9.401       8.647       7.592       6.255       5.769       4.933       3.633       1.948      4.6549E-03
   7    9.999       9.471       8.841       8.039       7.096       6.230       5.142       3.720       1.979      4.7287E-03
   8    9.999       9.529       8.981       8.300       7.467       6.498       5.293       3.793       2.007      4.7959E-03
   9    9.999       9.564       9.061       8.431       7.633       6.633       5.378       3.837       2.025      4.8400E-03
  10    9.999       9.580       9.095       8.484       7.696       6.687       5.414       3.858       2.034      4.8605E-03
1
              HEAD IN LAYER   5 AT END OF TIME STEP  66 IN STRESS PERIOD    3
  ---------------------------------------------------------------------------

            1           2           3           4           5           6           7           8           9          10
 ........................................................................................................................
   1    9.999       9.549       9.029       8.386       7.581       6.586       5.343       3.815       2.014      4.8216E-03
   2    9.999       9.521       8.966       8.279       7.443       6.476       5.275       3.780       2.000      4.7881E-03
   3    9.999       9.467       8.833       8.028       7.083       6.217       5.132       3.712       1.974      4.7257E-03
   4    9.999       9.398       8.642       7.585       6.250       5.761       4.926       3.627       1.944      4.6539E-03
   5    9.999       9.356       8.492       7.055       4.393       5.211       4.765       3.576       1.928      4.6164E-03
   6    9.999       9.399       8.643       7.587       6.253       5.763       4.928       3.628       1.944      4.6551E-03
   7    9.999       9.470       8.838       8.034       7.091       6.224       5.137       3.716       1.975      4.7293E-03
   8    9.999       9.527       8.979       8.296       7.462       6.493       5.288       3.788       2.004      4.7969E-03
   9    9.999       9.563       9.058       8.427       7.629       6.628       5.373       3.833       2.022      4.8413E-03
  10    9.999       9.579       9.092       8.481       7.692       6.683       5.410       3.854       2.031      4.8620E-03

 HEAD WILL BE SAVED ON UNIT   51 AT END OF TIME STEP   66, STRESS PERIOD    3

 DRAWDOWN WILL BE SAVED ON UNIT   52 AT END OF TIME STEP   66, STRESS PERIOD    3
1
  VOLUMETRIC BUDGET FOR ENTIRE MODEL AT END OF TIME STEP   66, STRESS PERIOD   3
  ------------------------------------------------------------------------------

     CUMULATIVE VOLUMES      L**3       RATES FOR THIS TIME STEP      L**3/T
     ------------------                 ------------------------

           IN:                                      IN:
           ---                                      ---
             STORAGE =      413915.2188               STORAGE =        1202.9324
       CONSTANT HEAD =           0.0000         CONSTANT HEAD =           0.0000
               WELLS =           0.0000                 WELLS =           0.0000
     HEAD DEP BOUNDS =       14954.9570       HEAD DEP BOUNDS =         304.6133

            TOTAL IN =      428870.1875              TOTAL IN =        1507.5457

          OUT:                                     OUT:
          ----                                     ----
             STORAGE =           0.0000               STORAGE =           0.0000
       CONSTANT HEAD =           0.0000         CONSTANT HEAD =           0.0000
               WELLS =       33000.0000                 WELLS =         500.0000
     HEAD DEP BOUNDS =      395871.0625       HEAD DEP BOUNDS =        1007.5064

           TOTAL OUT =      428871.0625             TOTAL OUT =        1507.5063

            IN - OUT =          -0.8750              IN - OUT =       3.9307E-02

 PERCENT DISCREPANCY =          -0.00     PERCENT DISCREPANCY =           0.00






         TIME SUMMARY AT END OF TIME STEP   66 IN STRESS PERIOD    3
                    SECONDS     MINUTES      HOURS       DAYS        YEARS
                    -----------------------------------------------------------
   TIME STEP LENGTH  86400.      1440.0      24.000      1.0000     2.73785E-03
 STRESS PERIOD TIME 5.70240E+06  95040.      1584.0      66.000     0.18070    
         TOTAL TIME 1.44288E+07 2.40480E+05  4008.0      167.00     0.45722    
1
 
 SOLVING FOR HEAD 

 OUTPUT CONTROL FOR STRESS PERIOD    3   TIME STEP   67
    SAVE HEAD FOR ALL LAYERS
    SAVE DRAWDOWN FOR ALL LAYERS
    SAVE BUDGET
    PRINT HEAD FOR ALL LAYERS
    PRINT BUDGET
 UBDSV1 SAVING "         STORAGE" ON UNIT  53 AT TIME STEP 67, STRESS PERIOD   3
 UBDSV2 SAVING "   CONSTANT HEAD" ON UNIT  53 AT TIME STEP 67, STRESS PERIOD   3
 UBDSV1 SAVING "FLOW RIGHT FACE " ON UNIT  53 AT TIME STEP 67, STRESS PERIOD   3
 UBDSV1 SAVING "FLOW FRONT FACE " ON UNIT  53 AT TIME STEP 67, STRESS PERIOD   3
 UBDSV1 SAVING "FLOW LOWER FACE " ON UNIT  53 AT TIME STEP 67, STRESS PERIOD   3
1
              HEAD IN LAYER   1 AT END OF TIME STEP  67 IN STRESS PERIOD    3
  ---------------------------------------------------------------------------

            1           2           3           4           5           6           7           8           9          10
 ........................................................................................................................
   1    9.999       9.556       9.044       8.407       7.607       6.614       5.371       3.840       2.034      1.7882E-03
   2    9.999       9.530       8.983       8.302       7.471       6.505       5.304       3.806       2.020      1.7751E-03
   3    9.999       9.477       8.851       8.054       7.114       6.250       5.163       3.739       1.994      1.7506E-03
   4    9.999       9.409       8.663       7.615       6.268       5.794       4.958       3.655       1.964      1.7221E-03
   5    9.999       9.367       8.514       7.075       3.365       5.224       4.796       3.604       1.949      1.7074E-03
   6    9.999       9.410       8.664       7.617       6.270       5.796       4.960       3.656       1.965      1.7226E-03
   7    9.999       9.479       8.856       8.060       7.121       6.256       5.167       3.742       1.996      1.7519E-03
   8    9.999       9.536       8.994       8.318       7.489       6.522       5.316       3.814       2.023      1.7784E-03
   9    9.999       9.570       9.072       8.447       7.653       6.655       5.400       3.858       2.042      1.7958E-03
  10    9.999       9.585       9.105       8.499       7.715       6.708       5.436       3.878       2.050      1.8039E-03
1
              HEAD IN LAYER   2 AT END OF TIME STEP  67 IN STRESS PERIOD    3
  ---------------------------------------------------------------------------

            1           2           3           4           5           6           7           8           9          10
 ........................................................................................................................
   1    9.999       9.551       9.035       8.393       7.591       6.597       5.355       3.828       2.025      4.2366E-03
   2    9.999       9.524       8.972       8.287       7.454       6.488       5.288       3.793       2.011      4.2073E-03
   3    9.999       9.470       8.840       8.037       7.095       6.230       5.145       3.726       1.985      4.1526E-03
   4    9.999       9.402       8.649       7.596       6.248       5.774       4.940       3.641       1.955      4.0895E-03
   5    9.999       9.360       8.500       7.054       3.713       5.206       4.778       3.590       1.940      4.0564E-03
   6    9.999       9.403       8.651       7.599       6.250       5.776       4.942       3.642       1.956      4.0905E-03
   7    9.999       9.473       8.844       8.044       7.102       6.237       5.150       3.729       1.987      4.1557E-03
   8    9.999       9.530       8.984       8.304       7.473       6.505       5.300       3.801       2.015      4.2149E-03
   9    9.999       9.565       9.063       8.434       7.638       6.639       5.385       3.846       2.033      4.2537E-03
  10    9.999       9.581       9.097       8.487       7.701       6.693       5.421       3.866       2.042      4.2718E-03
1
              HEAD IN LAYER   3 AT END OF TIME STEP  67 IN STRESS PERIOD    3
  ---------------------------------------------------------------------------

            1           2           3           4           5           6           7           8           9          10
 ........................................................................................................................
   1    9.999       9.547       9.027       8.382       7.577       6.583       5.341       3.815       2.016      4.7501E-03
   2    9.999       9.520       8.964       8.275       7.439       6.472       5.273       3.780       2.002      4.7169E-03
   3    9.999       9.466       8.830       8.024       7.079       6.213       5.129       3.712       1.976      4.6551E-03
   4    9.999       9.397       8.639       7.581       6.236       5.756       4.923       3.626       1.945      4.5839E-03
   5    9.999       9.355       8.489       7.042       4.050       5.195       4.761       3.575       1.930      4.5467E-03
   6    9.999       9.398       8.640       7.583       6.238       5.758       4.925       3.628       1.946      4.5851E-03
   7    9.999       9.468       8.835       8.031       7.086       6.220       5.134       3.715       1.977      4.6586E-03
   8    9.999       9.526       8.976       8.292       7.459       6.490       5.286       3.788       2.006      4.7257E-03
   9    9.999       9.562       9.056       8.424       7.625       6.625       5.371       3.833       2.024      4.7698E-03
  10    9.999       9.578       9.090       8.478       7.689       6.680       5.408       3.854       2.033      4.7904E-03
1
              HEAD IN LAYER   4 AT END OF TIME STEP  67 IN STRESS PERIOD    3
  ---------------------------------------------------------------------------

            1           2           3           4           5           6           7           8           9          10
 ........................................................................................................................
   1    9.999       9.545       9.022       8.375       7.569       6.573       5.331       3.807       2.010      4.8033E-03
   2    9.999       9.517       8.958       8.267       7.430       6.462       5.263       3.771       1.996      4.7693E-03
   3    9.999       9.463       8.824       8.015       7.068       6.202       5.118       3.703       1.969      4.7061E-03
   4    9.999       9.393       8.632       7.571       6.230       5.744       4.911       3.617       1.939      4.6336E-03
   5    9.999       9.351       8.481       7.037       4.264       5.189       4.750       3.565       1.923      4.5958E-03
   6    9.999       9.394       8.633       7.573       6.232       5.746       4.913       3.618       1.939      4.6349E-03
   7    9.999       9.465       8.829       8.022       7.076       6.209       5.123       3.706       1.971      4.7098E-03
   8    9.999       9.523       8.971       8.285       7.449       6.479       5.276       3.780       1.999      4.7783E-03
   9    9.999       9.559       9.051       8.418       7.617       6.616       5.362       3.825       2.018      4.8235E-03
  10    9.999       9.575       9.086       8.471       7.681       6.671       5.399       3.846       2.027      4.8447E-03
1
              HEAD IN LAYER   5 AT END OF TIME STEP  67 IN STRESS PERIOD    3
  ---------------------------------------------------------------------------

            1           2           3           4           5           6           7           8           9          10
 ........................................................................................................................
   1    9.999       9.543       9.019       8.372       7.564       6.568       5.326       3.802       2.007      4.8044E-03
   2    9.999       9.516       8.955       8.263       7.425       6.456       5.257       3.767       1.992      4.7702E-03
   3    9.999       9.461       8.821       8.010       7.063       6.196       5.113       3.698       1.966      4.7067E-03
   4    9.999       9.392       8.628       7.566       6.228       5.738       4.906       3.612       1.935      4.6338E-03
   5    9.999       9.349       8.478       7.035       4.368       5.187       4.744       3.560       1.919      4.5959E-03
   6    9.999       9.393       8.630       7.568       6.230       5.740       4.908       3.613       1.936      4.6351E-03
   7    9.999       9.464       8.826       8.017       7.070       6.203       5.118       3.701       1.967      4.7104E-03
   8    9.999       9.522       8.968       8.281       7.445       6.474       5.271       3.775       1.996      4.7794E-03
   9    9.999       9.558       9.049       8.414       7.613       6.611       5.358       3.821       2.015      4.8249E-03
  10    9.999       9.574       9.084       8.468       7.678       6.667       5.395       3.842       2.024      4.8462E-03

 HEAD WILL BE SAVED ON UNIT   51 AT END OF TIME STEP   67, STRESS PERIOD    3

 DRAWDOWN WILL BE SAVED ON UNIT   52 AT END OF TIME STEP   67, STRESS PERIOD    3
1
  VOLUMETRIC BUDGET FOR ENTIRE MODEL AT END OF TIME STEP   67, STRESS PERIOD   3
  ------------------------------------------------------------------------------

     CUMULATIVE VOLUMES      L**3       RATES FOR THIS TIME STEP      L**3/T
     ------------------                 ------------------------

           IN:                                      IN:
           ---                                      ---
             STORAGE =      415110.7188               STORAGE =        1195.4912
       CONSTANT HEAD =           0.0000         CONSTANT HEAD =           0.0000
               WELLS =           0.0000                 WELLS =           0.0000
     HEAD DEP BOUNDS =       15263.0635       HEAD DEP BOUNDS =         308.1062

            TOTAL IN =      430373.7812              TOTAL IN =        1503.5974

          OUT:                                     OUT:
          ----                                     ----
             STORAGE =           0.0000               STORAGE =           0.0000
       CONSTANT HEAD =           0.0000         CONSTANT HEAD =           0.0000
               WELLS =       33500.0000                 WELLS =         500.0000
     HEAD DEP BOUNDS =      396874.6250       HEAD DEP BOUNDS =        1003.5662

           TOTAL OUT =      430374.6250             TOTAL OUT =        1503.5662

            IN - OUT =          -0.8438              IN - OUT =       3.1250E-02

 PERCENT DISCREPANCY =          -0.00     PERCENT DISCREPANCY =           0.00






         TIME SUMMARY AT END OF TIME STEP   67 IN STRESS PERIOD    3
                    SECONDS     MINUTES      HOURS       DAYS        YEARS
                    -----------------------------------------------------------
   TIME STEP LENGTH  86400.      1440.0      24.000      1.0000     2.73785E-03
 STRESS PERIOD TIME 5.78880E+06  96480.      1608.0      67.000     0.18344    
         TOTAL TIME 1.45152E+07 2.41920E+05  4032.0      168.00     0.45996    
1
 
 SOLVING FOR HEAD 

 OUTPUT CONTROL FOR STRESS PERIOD    3   TIME STEP   68
    SAVE HEAD FOR ALL LAYERS
    SAVE DRAWDOWN FOR ALL LAYERS
    SAVE BUDGET
    PRINT HEAD FOR ALL LAYERS
    PRINT BUDGET
 UBDSV1 SAVING "         STORAGE" ON UNIT  53 AT TIME STEP 68, STRESS PERIOD   3
 UBDSV2 SAVING "   CONSTANT HEAD" ON UNIT  53 AT TIME STEP 68, STRESS PERIOD   3
 UBDSV1 SAVING "FLOW RIGHT FACE " ON UNIT  53 AT TIME STEP 68, STRESS PERIOD   3
 UBDSV1 SAVING "FLOW FRONT FACE " ON UNIT  53 AT TIME STEP 68, STRESS PERIOD   3
 UBDSV1 SAVING "FLOW LOWER FACE " ON UNIT  53 AT TIME STEP 68, STRESS PERIOD   3
1
              HEAD IN LAYER   1 AT END OF TIME STEP  68 IN STRESS PERIOD    3
  ---------------------------------------------------------------------------

            1           2           3           4           5           6           7           8           9          10
 ........................................................................................................................
   1    9.999       9.551       9.034       8.393       7.590       6.596       5.354       3.827       2.026      1.7812E-03
   2    9.999       9.524       8.972       8.286       7.453       6.486       5.286       3.793       2.012      1.7678E-03
   3    9.999       9.470       8.839       8.037       7.094       6.228       5.144       3.725       1.986      1.7429E-03
   4    9.999       9.402       8.649       7.596       6.245       5.771       4.938       3.640       1.956      1.7142E-03
   5    9.999       9.360       8.500       7.055       3.340       5.200       4.775       3.588       1.940      1.6990E-03
   6    9.999       9.403       8.651       7.598       6.247       5.773       4.939       3.641       1.956      1.7146E-03
   7    9.999       9.473       8.844       8.043       7.101       6.235       5.149       3.728       1.988      1.7443E-03
   8    9.999       9.530       8.984       8.303       7.472       6.503       5.299       3.801       2.016      1.7713E-03
   9    9.999       9.565       9.063       8.434       7.637       6.638       5.384       3.846       2.035      1.7892E-03
  10    9.999       9.581       9.096       8.487       7.700       6.692       5.421       3.866       2.043      1.7976E-03
1
              HEAD IN LAYER   2 AT END OF TIME STEP  68 IN STRESS PERIOD    3
  ---------------------------------------------------------------------------

            1           2           3           4           5           6           7           8           9          10
 ........................................................................................................................
   1    9.999       9.546       9.024       8.379       7.574       6.579       5.339       3.815       2.018      4.2213E-03
   2    9.999       9.519       8.961       8.271       7.435       6.468       5.270       3.780       2.004      4.1914E-03
   3    9.999       9.464       8.827       8.020       7.075       6.209       5.126       3.711       1.977      4.1357E-03
   4    9.999       9.395       8.636       7.577       6.225       5.751       4.920       3.625       1.947      4.0716E-03
   5    9.999       9.353       8.486       7.034       3.687       5.182       4.757       3.574       1.931      4.0382E-03
   6    9.999       9.396       8.637       7.580       6.228       5.753       4.921       3.627       1.947      4.0727E-03
   7    9.999       9.467       8.832       8.027       7.082       6.216       5.132       3.714       1.979      4.1389E-03
   8    9.999       9.525       8.973       8.289       7.455       6.486       5.283       3.788       2.008      4.1993E-03
   9    9.999       9.561       9.054       8.421       7.622       6.622       5.370       3.833       2.026      4.2391E-03
  10    9.999       9.577       9.088       8.475       7.686       6.677       5.407       3.854       2.035      4.2577E-03
1
              HEAD IN LAYER   3 AT END OF TIME STEP  68 IN STRESS PERIOD    3
  ---------------------------------------------------------------------------

            1           2           3           4           5           6           7           8           9          10
 ........................................................................................................................
   1    9.999       9.542       9.017       8.368       7.560       6.565       5.324       3.802       2.009      4.7331E-03
   2    9.999       9.514       8.953       8.260       7.421       6.453       5.255       3.767       1.994      4.6993E-03
   3    9.999       9.459       8.818       8.007       7.058       6.192       5.110       3.697       1.968      4.6363E-03
   4    9.999       9.390       8.625       7.562       6.213       5.733       4.903       3.611       1.937      4.5640E-03
   5    9.999       9.348       8.475       7.023       4.025       5.171       4.740       3.559       1.921      4.5264E-03
   6    9.999       9.391       8.627       7.564       6.216       5.735       4.904       3.612       1.937      4.5653E-03
   7    9.999       9.462       8.823       8.014       7.066       6.199       5.116       3.701       1.969      4.6400E-03
   8    9.999       9.521       8.965       8.277       7.441       6.471       5.269       3.775       1.998      4.7084E-03
   9    9.999       9.557       9.047       8.411       7.610       6.609       5.356       3.821       2.017      4.7536E-03
  10    9.999       9.573       9.081       8.465       7.674       6.664       5.394       3.842       2.026      4.7748E-03
1
              HEAD IN LAYER   4 AT END OF TIME STEP  68 IN STRESS PERIOD    3
  ---------------------------------------------------------------------------

            1           2           3           4           5           6           7           8           9          10
 ........................................................................................................................
   1    9.999       9.540       9.012       8.361       7.551       6.555       5.315       3.794       2.003      4.7861E-03
   2    9.999       9.511       8.947       8.252       7.411       6.443       5.245       3.758       1.988      4.7515E-03
   3    9.999       9.456       8.812       7.998       7.048       6.181       5.099       3.688       1.961      4.6872E-03
   4    9.999       9.387       8.618       7.552       6.207       5.721       4.891       3.602       1.930      4.6136E-03
   5    9.999       9.344       8.468       7.017       4.240       5.165       4.729       3.550       1.914      4.5754E-03
   6    9.999       9.387       8.620       7.555       6.210       5.723       4.893       3.603       1.931      4.6149E-03
   7    9.999       9.459       8.817       8.005       7.056       6.188       5.105       3.692       1.963      4.6911E-03
   8    9.999       9.518       8.960       8.270       7.432       6.461       5.259       3.766       1.992      4.7609E-03
   9    9.999       9.555       9.042       8.405       7.601       6.599       5.347       3.813       2.011      4.8072E-03
  10    9.999       9.571       9.077       8.459       7.667       6.655       5.385       3.834       2.021      4.8289E-03
1
              HEAD IN LAYER   5 AT END OF TIME STEP  68 IN STRESS PERIOD    3
  ---------------------------------------------------------------------------

            1           2           3           4           5           6           7           8           9          10
 ........................................................................................................................
   1    9.999       9.538       9.009       8.357       7.547       6.550       5.310       3.790       2.000      4.7872E-03
   2    9.999       9.510       8.944       8.248       7.407       6.437       5.240       3.754       1.985      4.7524E-03
   3    9.999       9.455       8.809       7.993       7.042       6.175       5.094       3.684       1.958      4.6878E-03
   4    9.999       9.385       8.615       7.547       6.205       5.715       4.886       3.597       1.927      4.6138E-03
   5    9.999       9.342       8.464       7.015       4.344       5.164       4.723       3.545       1.911      4.5755E-03
   6    9.999       9.386       8.617       7.550       6.208       5.717       4.887       3.598       1.928      4.6152E-03
   7    9.999       9.457       8.814       8.001       7.051       6.183       5.100       3.687       1.960      4.6917E-03
   8    9.999       9.517       8.958       8.266       7.427       6.456       5.254       3.762       1.989      4.7620E-03
   9    9.999       9.553       9.040       8.401       7.597       6.595       5.342       3.809       2.008      4.8085E-03
  10    9.999       9.570       9.075       8.456       7.663       6.651       5.380       3.830       2.018      4.8304E-03

 HEAD WILL BE SAVED ON UNIT   51 AT END OF TIME STEP   68, STRESS PERIOD    3

 DRAWDOWN WILL BE SAVED ON UNIT   52 AT END OF TIME STEP   68, STRESS PERIOD    3
1
  VOLUMETRIC BUDGET FOR ENTIRE MODEL AT END OF TIME STEP   68, STRESS PERIOD   3
  ------------------------------------------------------------------------------

     CUMULATIVE VOLUMES      L**3       RATES FOR THIS TIME STEP      L**3/T
     ------------------                 ------------------------

           IN:                                      IN:
           ---                                      ---
             STORAGE =      416298.8125               STORAGE =        1188.1017
       CONSTANT HEAD =           0.0000         CONSTANT HEAD =           0.0000
               WELLS =           0.0000                 WELLS =           0.0000
     HEAD DEP BOUNDS =       15574.6348       HEAD DEP BOUNDS =         311.5716

            TOTAL IN =      431873.4375              TOTAL IN =        1499.6733

          OUT:                                     OUT:
          ----                                     ----
             STORAGE =           0.0000               STORAGE =           0.0000
       CONSTANT HEAD =           0.0000         CONSTANT HEAD =           0.0000
               WELLS =       34000.0000                 WELLS =         500.0000
     HEAD DEP BOUNDS =      397874.2812       HEAD DEP BOUNDS =         999.6532

           TOTAL OUT =      431874.2812             TOTAL OUT =        1499.6532

            IN - OUT =          -0.8438              IN - OUT =       2.0142E-02

 PERCENT DISCREPANCY =          -0.00     PERCENT DISCREPANCY =           0.00






         TIME SUMMARY AT END OF TIME STEP   68 IN STRESS PERIOD    3
                    SECONDS     MINUTES      HOURS       DAYS        YEARS
                    -----------------------------------------------------------
   TIME STEP LENGTH  86400.      1440.0      24.000      1.0000     2.73785E-03
 STRESS PERIOD TIME 5.87520E+06  97920.      1632.0      68.000     0.18617    
         TOTAL TIME 1.46016E+07 2.43360E+05  4056.0      169.00     0.46270    
1
 
 SOLVING FOR HEAD 

 OUTPUT CONTROL FOR STRESS PERIOD    3   TIME STEP   69
    SAVE HEAD FOR ALL LAYERS
    SAVE DRAWDOWN FOR ALL LAYERS
    SAVE BUDGET
    PRINT HEAD FOR ALL LAYERS
    PRINT BUDGET
 UBDSV1 SAVING "         STORAGE" ON UNIT  53 AT TIME STEP 69, STRESS PERIOD   3
 UBDSV2 SAVING "   CONSTANT HEAD" ON UNIT  53 AT TIME STEP 69, STRESS PERIOD   3
 UBDSV1 SAVING "FLOW RIGHT FACE " ON UNIT  53 AT TIME STEP 69, STRESS PERIOD   3
 UBDSV1 SAVING "FLOW FRONT FACE " ON UNIT  53 AT TIME STEP 69, STRESS PERIOD   3
 UBDSV1 SAVING "FLOW LOWER FACE " ON UNIT  53 AT TIME STEP 69, STRESS PERIOD   3
1
              HEAD IN LAYER   1 AT END OF TIME STEP  69 IN STRESS PERIOD    3
  ---------------------------------------------------------------------------

            1           2           3           4           5           6           7           8           9          10
 ........................................................................................................................
   1    9.999       9.546       9.024       8.378       7.573       6.578       5.338       3.815       2.019      1.7743E-03
   2    9.999       9.518       8.961       8.271       7.434       6.467       5.269       3.779       2.005      1.7608E-03
   3    9.999       9.464       8.827       8.019       7.073       6.207       5.125       3.710       1.978      1.7353E-03
   4    9.999       9.395       8.636       7.577       6.222       5.748       4.917       3.624       1.947      1.7060E-03
   5    9.999       9.353       8.486       7.035       3.315       5.176       4.754       3.572       1.931      1.6909E-03
   6    9.999       9.396       8.637       7.579       6.225       5.750       4.919       3.625       1.948      1.7066E-03
   7    9.999       9.467       8.832       8.026       7.081       6.214       5.130       3.714       1.980      1.7367E-03
   8    9.999       9.525       8.973       8.288       7.454       6.485       5.282       3.787       2.009      1.7642E-03
   9    9.999       9.560       9.053       8.421       7.621       6.621       5.369       3.833       2.028      1.7825E-03
  10    9.999       9.576       9.088       8.474       7.685       6.676       5.406       3.854       2.037      1.7911E-03
1
              HEAD IN LAYER   2 AT END OF TIME STEP  69 IN STRESS PERIOD    3
  ---------------------------------------------------------------------------

            1           2           3           4           5           6           7           8           9          10
 ........................................................................................................................
   1    9.999       9.541       9.014       8.365       7.557       6.561       5.322       3.802       2.011      4.2061E-03
   2    9.999       9.513       8.950       8.256       7.417       6.449       5.253       3.766       1.996      4.1756E-03
   3    9.999       9.458       8.815       8.003       7.054       6.188       5.107       3.697       1.969      4.1189E-03
   4    9.999       9.389       8.622       7.558       6.203       5.728       4.899       3.610       1.939      4.0539E-03
   5    9.999       9.346       8.472       7.015       3.662       5.158       4.736       3.558       1.922      4.0201E-03
   6    9.999       9.389       8.624       7.561       6.205       5.730       4.901       3.611       1.939      4.0551E-03
   7    9.999       9.461       8.820       8.010       7.062       6.196       5.113       3.700       1.971      4.1223E-03
   8    9.999       9.519       8.963       8.274       7.437       6.468       5.267       3.775       2.000      4.1839E-03
   9    9.999       9.556       9.044       8.408       7.606       6.606       5.354       3.821       2.020      4.2246E-03
  10    9.999       9.572       9.079       8.463       7.671       6.661       5.392       3.842       2.029      4.2438E-03
1
              HEAD IN LAYER   3 AT END OF TIME STEP  69 IN STRESS PERIOD    3
  ---------------------------------------------------------------------------

            1           2           3           4           5           6           7           8           9          10
 ........................................................................................................................
   1    9.999       9.537       9.007       8.354       7.543       6.547       5.308       3.789       2.002      4.7162E-03
   2    9.999       9.509       8.942       8.244       7.403       6.434       5.238       3.753       1.987      4.6817E-03
   3    9.999       9.453       8.806       7.990       7.038       6.172       5.091       3.683       1.960      4.6176E-03
   4    9.999       9.383       8.612       7.543       6.191       5.710       4.882       3.596       1.929      4.5443E-03
   5    9.999       9.341       8.461       7.003       4.000       5.147       4.719       3.544       1.912      4.5063E-03
   6    9.999       9.384       8.614       7.546       6.193       5.712       4.884       3.597       1.929      4.5457E-03
   7    9.999       9.456       8.811       7.997       7.046       6.179       5.097       3.687       1.961      4.6215E-03
   8    9.999       9.515       8.955       8.263       7.424       6.453       5.252       3.762       1.991      4.6912E-03
   9    9.999       9.552       9.037       8.398       7.594       6.592       5.341       3.809       2.011      4.7375E-03
  10    9.999       9.569       9.073       8.453       7.660       6.648       5.379       3.831       2.020      4.7592E-03
1
              HEAD IN LAYER   4 AT END OF TIME STEP  69 IN STRESS PERIOD    3
  ---------------------------------------------------------------------------

            1           2           3           4           5           6           7           8           9          10
 ........................................................................................................................
   1    9.999       9.534       9.001       8.347       7.534       6.537       5.298       3.781       1.995      4.7691E-03
   2    9.999       9.506       8.936       8.236       7.393       6.424       5.228       3.745       1.981      4.7337E-03
   3    9.999       9.450       8.800       7.981       7.028       6.160       5.081       3.674       1.953      4.6684E-03
   4    9.999       9.380       8.605       7.534       6.185       5.698       4.871       3.586       1.922      4.5937E-03
   5    9.999       9.337       8.454       6.998       4.215       5.142       4.708       3.534       1.906      4.5551E-03
   6    9.999       9.381       8.607       7.536       6.188       5.701       4.873       3.588       1.923      4.5952E-03
   7    9.999       9.453       8.805       7.988       7.036       6.168       5.086       3.678       1.955      4.6724E-03
   8    9.999       9.513       8.950       8.255       7.414       6.443       5.242       3.754       1.985      4.7436E-03
   9    9.999       9.550       9.033       8.391       7.586       6.583       5.332       3.801       2.005      4.7910E-03
  10    9.999       9.566       9.068       8.447       7.652       6.640       5.370       3.823       2.014      4.8133E-03
1
              HEAD IN LAYER   5 AT END OF TIME STEP  69 IN STRESS PERIOD    3
  ---------------------------------------------------------------------------

            1           2           3           4           5           6           7           8           9          10
 ........................................................................................................................
   1    9.999       9.533       8.999       8.343       7.530       6.532       5.293       3.777       1.992      4.7702E-03
   2    9.999       9.504       8.934       8.232       7.388       6.419       5.223       3.740       1.978      4.7347E-03
   3    9.999       9.448       8.797       7.976       7.022       6.155       5.075       3.669       1.950      4.6689E-03
   4    9.999       9.378       8.602       7.529       6.183       5.692       4.866       3.582       1.919      4.5940E-03
   5    9.999       9.335       8.450       6.996       4.320       5.140       4.703       3.529       1.902      4.5552E-03
   6    9.999       9.379       8.604       7.531       6.186       5.695       4.867       3.583       1.919      4.5954E-03
   7    9.999       9.451       8.802       7.984       7.031       6.162       5.081       3.673       1.952      4.6731E-03
   8    9.999       9.511       8.947       8.251       7.410       6.438       5.237       3.749       1.982      4.7447E-03
   9    9.999       9.549       9.030       8.388       7.581       6.578       5.327       3.797       2.002      4.7923E-03
  10    9.999       9.565       9.066       8.444       7.648       6.636       5.366       3.819       2.011      4.8148E-03

 HEAD WILL BE SAVED ON UNIT   51 AT END OF TIME STEP   69, STRESS PERIOD    3

 DRAWDOWN WILL BE SAVED ON UNIT   52 AT END OF TIME STEP   69, STRESS PERIOD    3
1
  VOLUMETRIC BUDGET FOR ENTIRE MODEL AT END OF TIME STEP   69, STRESS PERIOD   3
  ------------------------------------------------------------------------------

     CUMULATIVE VOLUMES      L**3       RATES FOR THIS TIME STEP      L**3/T
     ------------------                 ------------------------

           IN:                                      IN:
           ---                                      ---
             STORAGE =      417479.5625               STORAGE =        1180.7427
       CONSTANT HEAD =           0.0000         CONSTANT HEAD =           0.0000
               WELLS =           0.0000                 WELLS =           0.0000
     HEAD DEP BOUNDS =       15889.6641       HEAD DEP BOUNDS =         315.0296

            TOTAL IN =      433369.2188              TOTAL IN =        1495.7722

          OUT:                                     OUT:
          ----                                     ----
             STORAGE =           0.0000               STORAGE =           0.0000
       CONSTANT HEAD =           0.0000         CONSTANT HEAD =           0.0000
               WELLS =       34500.0000                 WELLS =         500.0000
     HEAD DEP BOUNDS =      398870.0312       HEAD DEP BOUNDS =         995.7633

           TOTAL OUT =      433370.0312             TOTAL OUT =        1495.7633

            IN - OUT =          -0.8125              IN - OUT =       8.9111E-03

 PERCENT DISCREPANCY =          -0.00     PERCENT DISCREPANCY =           0.00






         TIME SUMMARY AT END OF TIME STEP   69 IN STRESS PERIOD    3
                    SECONDS     MINUTES      HOURS       DAYS        YEARS
                    -----------------------------------------------------------
   TIME STEP LENGTH  86400.      1440.0      24.000      1.0000     2.73785E-03
 STRESS PERIOD TIME 5.96160E+06  99360.      1656.0      69.000     0.18891    
         TOTAL TIME 1.46880E+07 2.44800E+05  4080.0      170.00     0.46543    
1
 
 SOLVING FOR HEAD 

 OUTPUT CONTROL FOR STRESS PERIOD    3   TIME STEP   70
    SAVE HEAD FOR ALL LAYERS
    SAVE DRAWDOWN FOR ALL LAYERS
    SAVE BUDGET
    PRINT HEAD FOR ALL LAYERS
    PRINT BUDGET
 UBDSV1 SAVING "         STORAGE" ON UNIT  53 AT TIME STEP 70, STRESS PERIOD   3
 UBDSV2 SAVING "   CONSTANT HEAD" ON UNIT  53 AT TIME STEP 70, STRESS PERIOD   3
 UBDSV1 SAVING "FLOW RIGHT FACE " ON UNIT  53 AT TIME STEP 70, STRESS PERIOD   3
 UBDSV1 SAVING "FLOW FRONT FACE " ON UNIT  53 AT TIME STEP 70, STRESS PERIOD   3
 UBDSV1 SAVING "FLOW LOWER FACE " ON UNIT  53 AT TIME STEP 70, STRESS PERIOD   3
1
              HEAD IN LAYER   1 AT END OF TIME STEP  70 IN STRESS PERIOD    3
  ---------------------------------------------------------------------------

            1           2           3           4           5           6           7           8           9          10
 ........................................................................................................................
   1    9.999       9.541       9.014       8.364       7.556       6.560       5.321       3.802       2.012      1.7675E-03
   2    9.999       9.513       8.950       8.255       7.416       6.448       5.252       3.766       1.997      1.7535E-03
   3    9.999       9.458       8.815       8.002       7.053       6.186       5.106       3.696       1.970      1.7277E-03
   4    9.999       9.389       8.622       7.558       6.200       5.725       4.897       3.609       1.939      1.6981E-03
   5    9.999       9.346       8.472       7.015       3.290       5.152       4.733       3.557       1.923      1.6827E-03
   6    9.999       9.390       8.624       7.560       6.203       5.727       4.899       3.610       1.940      1.6987E-03
   7    9.999       9.461       8.820       8.009       7.061       6.194       5.111       3.699       1.972      1.7292E-03
   8    9.999       9.519       8.963       8.273       7.436       6.466       5.265       3.774       2.001      1.7574E-03
   9    9.999       9.556       9.044       8.407       7.605       6.605       5.353       3.821       2.021      1.7759E-03
  10    9.999       9.572       9.079       8.462       7.670       6.661       5.391       3.842       2.030      1.7848E-03
1
              HEAD IN LAYER   2 AT END OF TIME STEP  70 IN STRESS PERIOD    3
  ---------------------------------------------------------------------------

            1           2           3           4           5           6           7           8           9          10
 ........................................................................................................................
   1    9.999       9.536       9.004       8.350       7.540       6.544       5.306       3.789       2.004      4.1910E-03
   2    9.999       9.507       8.939       8.241       7.399       6.430       5.236       3.753       1.989      4.1599E-03
   3    9.999       9.452       8.803       7.986       7.034       6.168       5.089       3.682       1.961      4.1022E-03
   4    9.999       9.382       8.609       7.540       6.180       5.705       4.879       3.595       1.930      4.0363E-03
   5    9.999       9.339       8.459       6.995       3.638       5.134       4.716       3.543       1.914      4.0021E-03
   6    9.999       9.383       8.611       7.542       6.183       5.708       4.881       3.596       1.931      4.0375E-03
   7    9.999       9.455       8.808       7.993       7.042       6.175       5.094       3.686       1.963      4.1057E-03
   8    9.999       9.514       8.952       8.259       7.420       6.450       5.250       3.762       1.993      4.1685E-03
   9    9.999       9.551       9.035       8.395       7.590       6.589       5.339       3.809       2.013      4.2102E-03
  10    9.999       9.568       9.071       8.450       7.657       6.646       5.377       3.831       2.022      4.2298E-03
1
              HEAD IN LAYER   3 AT END OF TIME STEP  70 IN STRESS PERIOD    3
  ---------------------------------------------------------------------------

            1           2           3           4           5           6           7           8           9          10
 ........................................................................................................................
   1    9.999       9.532       8.996       8.339       7.526       6.529       5.291       3.777       1.994      4.6994E-03
   2    9.999       9.503       8.931       8.229       7.384       6.415       5.221       3.740       1.980      4.6642E-03
   3    9.999       9.447       8.794       7.973       7.018       6.151       5.073       3.669       1.952      4.5990E-03
   4    9.999       9.377       8.599       7.525       6.168       5.687       4.862       3.581       1.920      4.5248E-03
   5    9.999       9.334       8.448       6.984       3.976       5.124       4.699       3.528       1.904      4.4864E-03
   6    9.999       9.378       8.601       7.527       6.171       5.690       4.864       3.582       1.921      4.5262E-03
   7    9.999       9.450       8.799       7.980       7.027       6.159       5.079       3.673       1.954      4.6031E-03
   8    9.999       9.510       8.945       8.248       7.406       6.435       5.235       3.749       1.984      4.6742E-03
   9    9.999       9.547       9.028       8.385       7.578       6.575       5.325       3.797       2.004      4.7215E-03
  10    9.999       9.564       9.064       8.441       7.645       6.633       5.364       3.819       2.013      4.7438E-03
1
              HEAD IN LAYER   4 AT END OF TIME STEP  70 IN STRESS PERIOD    3
  ---------------------------------------------------------------------------

            1           2           3           4           5           6           7           8           9          10
 ........................................................................................................................
   1    9.999       9.529       8.991       8.332       7.517       6.519       5.282       3.768       1.988      4.7521E-03
   2    9.999       9.500       8.925       8.221       7.375       6.405       5.211       3.731       1.973      4.7161E-03
   3    9.999       9.444       8.788       7.964       7.008       6.140       5.062       3.660       1.945      4.6496E-03
   4    9.999       9.373       8.592       7.515       6.163       5.676       4.851       3.571       1.914      4.5740E-03
   5    9.999       9.330       8.440       6.978       4.191       5.119       4.688       3.519       1.897      4.5350E-03
   6    9.999       9.374       8.594       7.518       6.166       5.678       4.853       3.573       1.914      4.5755E-03
   7    9.999       9.447       8.793       7.972       7.016       6.148       5.068       3.664       1.947      4.6539E-03
   8    9.999       9.507       8.939       8.241       7.397       6.425       5.226       3.741       1.978      4.7264E-03
   9    9.999       9.545       9.023       8.378       7.570       6.566       5.316       3.789       1.998      4.7748E-03
  10    9.999       9.562       9.060       8.435       7.637       6.624       5.356       3.811       2.007      4.7977E-03
1
              HEAD IN LAYER   5 AT END OF TIME STEP  70 IN STRESS PERIOD    3
  ---------------------------------------------------------------------------

            1           2           3           4           5           6           7           8           9          10
 ........................................................................................................................
   1    9.999       9.528       8.989       8.329       7.513       6.515       5.277       3.764       1.985      4.7532E-03
   2    9.999       9.499       8.923       8.217       7.370       6.400       5.206       3.727       1.970      4.7170E-03
   3    9.999       9.442       8.785       7.959       7.002       6.134       5.057       3.655       1.942      4.6502E-03
   4    9.999       9.371       8.589       7.510       6.161       5.670       4.846       3.567       1.910      4.5743E-03
   5    9.999       9.328       8.437       6.977       4.296       5.117       4.682       3.514       1.894      4.5351E-03
   6    9.999       9.372       8.591       7.513       6.164       5.673       4.848       3.568       1.911      4.5758E-03
   7    9.999       9.445       8.790       7.967       7.011       6.142       5.063       3.659       1.944      4.6546E-03
   8    9.999       9.506       8.937       8.237       7.392       6.420       5.221       3.736       1.975      4.7275E-03
   9    9.999       9.544       9.021       8.375       7.566       6.562       5.312       3.785       1.995      4.7762E-03
  10    9.999       9.561       9.058       8.432       7.633       6.620       5.351       3.807       2.005      4.7993E-03

 HEAD WILL BE SAVED ON UNIT   51 AT END OF TIME STEP   70, STRESS PERIOD    3

 DRAWDOWN WILL BE SAVED ON UNIT   52 AT END OF TIME STEP   70, STRESS PERIOD    3
1
  VOLUMETRIC BUDGET FOR ENTIRE MODEL AT END OF TIME STEP   70, STRESS PERIOD   3
  ------------------------------------------------------------------------------

     CUMULATIVE VOLUMES      L**3       RATES FOR THIS TIME STEP      L**3/T
     ------------------                 ------------------------

           IN:                                      IN:
           ---                                      ---
             STORAGE =      418653.0000               STORAGE =        1173.4230
       CONSTANT HEAD =           0.0000         CONSTANT HEAD =           0.0000
               WELLS =           0.0000                 WELLS =           0.0000
     HEAD DEP BOUNDS =       16208.1367       HEAD DEP BOUNDS =         318.4730

            TOTAL IN =      434861.1250              TOTAL IN =        1491.8960

          OUT:                                     OUT:
          ----                                     ----
             STORAGE =           0.0000               STORAGE =           0.0000
       CONSTANT HEAD =           0.0000         CONSTANT HEAD =           0.0000
               WELLS =       35000.0000                 WELLS =         500.0000
     HEAD DEP BOUNDS =      399861.9375       HEAD DEP BOUNDS =         991.8973

           TOTAL OUT =      434861.9375             TOTAL OUT =        1491.8973

            IN - OUT =          -0.8125              IN - OUT =      -1.3428E-03

 PERCENT DISCREPANCY =          -0.00     PERCENT DISCREPANCY =          -0.00






         TIME SUMMARY AT END OF TIME STEP   70 IN STRESS PERIOD    3
                    SECONDS     MINUTES      HOURS       DAYS        YEARS
                    -----------------------------------------------------------
   TIME STEP LENGTH  86400.      1440.0      24.000      1.0000     2.73785E-03
 STRESS PERIOD TIME 6.04800E+06 1.00800E+05  1680.0      70.000     0.19165    
         TOTAL TIME 1.47744E+07 2.46240E+05  4104.0      171.00     0.46817    
1
 
 SOLVING FOR HEAD 

 OUTPUT CONTROL FOR STRESS PERIOD    3   TIME STEP   71
    SAVE HEAD FOR ALL LAYERS
    SAVE DRAWDOWN FOR ALL LAYERS
    SAVE BUDGET
    PRINT HEAD FOR ALL LAYERS
    PRINT BUDGET
 UBDSV1 SAVING "         STORAGE" ON UNIT  53 AT TIME STEP 71, STRESS PERIOD   3
 UBDSV2 SAVING "   CONSTANT HEAD" ON UNIT  53 AT TIME STEP 71, STRESS PERIOD   3
 UBDSV1 SAVING "FLOW RIGHT FACE " ON UNIT  53 AT TIME STEP 71, STRESS PERIOD   3
 UBDSV1 SAVING "FLOW FRONT FACE " ON UNIT  53 AT TIME STEP 71, STRESS PERIOD   3
 UBDSV1 SAVING "FLOW LOWER FACE " ON UNIT  53 AT TIME STEP 71, STRESS PERIOD   3
1
              HEAD IN LAYER   1 AT END OF TIME STEP  71 IN STRESS PERIOD    3
  ---------------------------------------------------------------------------

            1           2           3           4           5           6           7           8           9          10
 ........................................................................................................................
   1    9.999       9.536       9.004       8.350       7.539       6.542       5.305       3.789       2.005      1.7606E-03
   2    9.999       9.507       8.939       8.240       7.398       6.429       5.234       3.752       1.990      1.7465E-03
   3    9.999       9.452       8.803       7.985       7.033       6.166       5.087       3.682       1.962      1.7202E-03
   4    9.999       9.382       8.609       7.539       6.178       5.702       4.877       3.594       1.931      1.6902E-03
   5    9.999       9.339       8.459       6.996       3.266       5.128       4.713       3.541       1.914      1.6746E-03
   6    9.999       9.383       8.611       7.542       6.180       5.705       4.879       3.595       1.931      1.6907E-03
   7    9.999       9.454       8.808       7.993       7.041       6.173       5.093       3.685       1.964      1.7218E-03
   8    9.999       9.514       8.952       8.259       7.419       6.448       5.249       3.761       1.994      1.7505E-03
   9    9.999       9.551       9.035       8.394       7.590       6.588       5.338       3.809       2.014      1.7694E-03
  10    9.999       9.568       9.070       8.450       7.656       6.645       5.377       3.831       2.023      1.7784E-03
1
              HEAD IN LAYER   2 AT END OF TIME STEP  71 IN STRESS PERIOD    3
  ---------------------------------------------------------------------------

            1           2           3           4           5           6           7           8           9          10
 ........................................................................................................................
   1    9.999       9.530       8.994       8.336       7.523       6.526       5.289       3.777       1.996      4.1759E-03
   2    9.999       9.502       8.928       8.225       7.381       6.412       5.218       3.740       1.981      4.1442E-03
   3    9.999       9.446       8.791       7.969       7.014       6.147       5.070       3.668       1.954      4.0856E-03
   4    9.999       9.375       8.596       7.521       6.158       5.683       4.859       3.580       1.922      4.0188E-03
   5    9.999       9.332       8.445       6.976       3.613       5.111       4.695       3.527       1.905      3.9842E-03
   6    9.999       9.376       8.598       7.524       6.161       5.685       4.861       3.581       1.922      4.0201E-03
   7    9.999       9.448       8.797       7.977       7.023       6.155       5.076       3.672       1.955      4.0893E-03
   8    9.999       9.509       8.942       8.245       7.402       6.431       5.233       3.749       1.986      4.1533E-03
   9    9.999       9.546       9.026       8.382       7.575       6.573       5.324       3.797       2.006      4.1959E-03
  10    9.999       9.563       9.062       8.438       7.642       6.630       5.363       3.819       2.015      4.2160E-03
1
              HEAD IN LAYER   3 AT END OF TIME STEP  71 IN STRESS PERIOD    3
  ---------------------------------------------------------------------------

            1           2           3           4           5           6           7           8           9          10
 ........................................................................................................................
   1    9.999       9.526       8.986       8.325       7.509       6.511       5.275       3.764       1.987      4.6827E-03
   2    9.999       9.497       8.920       8.214       7.366       6.396       5.204       3.727       1.972      4.6468E-03
   3    9.999       9.441       8.782       7.956       6.998       6.130       5.054       3.655       1.944      4.5806E-03
   4    9.999       9.370       8.586       7.506       6.146       5.665       4.843       3.566       1.912      4.5053E-03
   5    9.999       9.327       8.434       6.964       3.952       5.100       4.678       3.513       1.896      4.4665E-03
   6    9.999       9.371       8.588       7.509       6.149       5.668       4.845       3.567       1.913      4.5068E-03
   7    9.999       9.444       8.788       7.964       7.007       6.138       5.060       3.659       1.946      4.5849E-03
   8    9.999       9.505       8.934       8.233       7.389       6.417       5.219       3.736       1.977      4.6572E-03
   9    9.999       9.543       9.019       8.372       7.563       6.559       5.310       3.785       1.997      4.7055E-03
  10    9.999       9.560       9.055       8.429       7.630       6.617       5.350       3.808       2.007      4.7284E-03
1
              HEAD IN LAYER   4 AT END OF TIME STEP  71 IN STRESS PERIOD    3
  ---------------------------------------------------------------------------

            1           2           3           4           5           6           7           8           9          10
 ........................................................................................................................
   1    9.999       9.524       8.981       8.318       7.500       6.502       5.266       3.756       1.981      4.7352E-03
   2    9.999       9.495       8.915       8.206       7.357       6.386       5.194       3.718       1.966      4.6986E-03
   3    9.999       9.438       8.776       7.947       6.988       6.119       5.044       3.646       1.938      4.6310E-03
   4    9.999       9.366       8.579       7.497       6.141       5.654       4.831       3.557       1.906      4.5544E-03
   5    9.999       9.323       8.427       6.959       4.167       5.096       4.667       3.504       1.889      4.5150E-03
   6    9.999       9.367       8.581       7.499       6.144       5.656       4.834       3.558       1.906      4.5560E-03
   7    9.999       9.441       8.782       7.955       6.997       6.127       5.050       3.650       1.940      4.6355E-03
   8    9.999       9.502       8.929       8.226       7.380       6.407       5.209       3.728       1.970      4.7093E-03
   9    9.999       9.540       9.014       8.365       7.554       6.550       5.301       3.777       1.991      4.7588E-03
  10    9.999       9.558       9.051       8.422       7.623       6.609       5.341       3.800       2.001      4.7822E-03
1
              HEAD IN LAYER   5 AT END OF TIME STEP  71 IN STRESS PERIOD    3
  ---------------------------------------------------------------------------

            1           2           3           4           5           6           7           8           9          10
 ........................................................................................................................
   1    9.999       9.522       8.979       8.314       7.496       6.497       5.261       3.752       1.978      4.7363E-03
   2    9.999       9.493       8.912       8.202       7.352       6.381       5.189       3.714       1.963      4.6995E-03
   3    9.999       9.436       8.773       7.943       6.982       6.114       5.039       3.641       1.935      4.6316E-03
   4    9.999       9.365       8.576       7.492       6.139       5.648       4.826       3.552       1.902      4.5547E-03
   5    9.999       9.321       8.423       6.957       4.272       5.094       4.662       3.499       1.886      4.5152E-03
   6    9.999       9.366       8.578       7.495       6.142       5.651       4.828       3.553       1.903      4.5563E-03
   7    9.999       9.439       8.779       7.951       6.992       6.122       5.045       3.645       1.936      4.6362E-03
   8    9.999       9.501       8.926       8.222       7.375       6.402       5.204       3.724       1.967      4.7104E-03
   9    9.999       9.539       9.012       8.362       7.550       6.546       5.297       3.773       1.988      4.7602E-03
  10    9.999       9.556       9.049       8.419       7.619       6.605       5.337       3.796       1.998      4.7838E-03

 HEAD WILL BE SAVED ON UNIT   51 AT END OF TIME STEP   71, STRESS PERIOD    3

 DRAWDOWN WILL BE SAVED ON UNIT   52 AT END OF TIME STEP   71, STRESS PERIOD    3
1
  VOLUMETRIC BUDGET FOR ENTIRE MODEL AT END OF TIME STEP   71, STRESS PERIOD   3
  ------------------------------------------------------------------------------

     CUMULATIVE VOLUMES      L**3       RATES FOR THIS TIME STEP      L**3/T
     ------------------                 ------------------------

           IN:                                      IN:
           ---                                      ---
             STORAGE =      419819.1562               STORAGE =        1166.1489
       CONSTANT HEAD =           0.0000         CONSTANT HEAD =           0.0000
               WELLS =           0.0000                 WELLS =           0.0000
     HEAD DEP BOUNDS =       16530.0527       HEAD DEP BOUNDS =         321.9152

            TOTAL IN =      436349.2188              TOTAL IN =        1488.0641

          OUT:                                     OUT:
          ----                                     ----
             STORAGE =           0.0000               STORAGE =           0.0000
       CONSTANT HEAD =           0.0000         CONSTANT HEAD =           0.0000
               WELLS =       35500.0000                 WELLS =         500.0000
     HEAD DEP BOUNDS =      400850.0000       HEAD DEP BOUNDS =         988.0566

           TOTAL OUT =      436350.0000             TOTAL OUT =        1488.0566

            IN - OUT =          -0.7812              IN - OUT =       7.4463E-03

 PERCENT DISCREPANCY =          -0.00     PERCENT DISCREPANCY =           0.00






         TIME SUMMARY AT END OF TIME STEP   71 IN STRESS PERIOD    3
                    SECONDS     MINUTES      HOURS       DAYS        YEARS
                    -----------------------------------------------------------
   TIME STEP LENGTH  86400.      1440.0      24.000      1.0000     2.73785E-03
 STRESS PERIOD TIME 6.13440E+06 1.02240E+05  1704.0      71.000     0.19439    
         TOTAL TIME 1.48608E+07 2.47680E+05  4128.0      172.00     0.47091    
1
 
 SOLVING FOR HEAD 

 OUTPUT CONTROL FOR STRESS PERIOD    3   TIME STEP   72
    SAVE HEAD FOR ALL LAYERS
    SAVE DRAWDOWN FOR ALL LAYERS
    SAVE BUDGET
    PRINT HEAD FOR ALL LAYERS
    PRINT BUDGET
 UBDSV1 SAVING "         STORAGE" ON UNIT  53 AT TIME STEP 72, STRESS PERIOD   3
 UBDSV2 SAVING "   CONSTANT HEAD" ON UNIT  53 AT TIME STEP 72, STRESS PERIOD   3
 UBDSV1 SAVING "FLOW RIGHT FACE " ON UNIT  53 AT TIME STEP 72, STRESS PERIOD   3
 UBDSV1 SAVING "FLOW FRONT FACE " ON UNIT  53 AT TIME STEP 72, STRESS PERIOD   3
 UBDSV1 SAVING "FLOW LOWER FACE " ON UNIT  53 AT TIME STEP 72, STRESS PERIOD   3
1
              HEAD IN LAYER   1 AT END OF TIME STEP  72 IN STRESS PERIOD    3
  ---------------------------------------------------------------------------

            1           2           3           4           5           6           7           8           9          10
 ........................................................................................................................
   1    9.999       9.530       8.993       8.335       7.522       6.525       5.288       3.776       1.998      1.7538E-03
   2    9.999       9.502       8.928       8.225       7.379       6.410       5.217       3.739       1.982      1.7393E-03
   3    9.999       9.446       8.791       7.968       7.013       6.145       5.068       3.667       1.954      1.7127E-03
   4    9.999       9.375       8.596       7.521       6.155       5.680       4.857       3.579       1.922      1.6822E-03
   5    9.999       9.332       8.445       6.976       3.242       5.105       4.692       3.526       1.906      1.6666E-03
   6    9.999       9.376       8.598       7.523       6.158       5.682       4.859       3.580       1.923      1.6828E-03
   7    9.999       9.448       8.796       7.976       7.021       6.153       5.074       3.671       1.956      1.7143E-03
   8    9.999       9.509       8.942       8.244       7.401       6.430       5.232       3.748       1.987      1.7436E-03
   9    9.999       9.546       9.025       8.381       7.574       6.572       5.323       3.797       2.007      1.7630E-03
  10    9.999       9.563       9.062       8.437       7.641       6.629       5.362       3.819       2.017      1.7722E-03
1
              HEAD IN LAYER   2 AT END OF TIME STEP  72 IN STRESS PERIOD    3
  ---------------------------------------------------------------------------

            1           2           3           4           5           6           7           8           9          10
 ........................................................................................................................
   1    9.999       9.525       8.984       8.322       7.506       6.508       5.273       3.764       1.989      4.1609E-03
   2    9.999       9.496       8.917       8.210       7.363       6.393       5.201       3.726       1.974      4.1286E-03
   3    9.999       9.439       8.779       7.952       6.994       6.126       5.052       3.654       1.946      4.0691E-03
   4    9.999       9.368       8.583       7.503       6.136       5.660       4.839       3.565       1.914      4.0014E-03
   5    9.999       9.325       8.432       6.957       3.589       5.088       4.675       3.512       1.897      3.9665E-03
   6    9.999       9.369       8.585       7.506       6.139       5.663       4.842       3.566       1.914      4.0028E-03
   7    9.999       9.442       8.785       7.960       7.003       6.135       5.058       3.658       1.948      4.0730E-03
   8    9.999       9.503       8.932       8.230       7.385       6.413       5.217       3.736       1.978      4.1381E-03
   9    9.999       9.541       9.016       8.369       7.559       6.556       5.308       3.785       1.999      4.1817E-03
  10    9.999       9.559       9.053       8.426       7.627       6.615       5.348       3.808       2.009      4.2023E-03
1
              HEAD IN LAYER   3 AT END OF TIME STEP  72 IN STRESS PERIOD    3
  ---------------------------------------------------------------------------

            1           2           3           4           5           6           7           8           9          10
 ........................................................................................................................
   1    9.999       9.521       8.976       8.311       7.492       6.494       5.259       3.751       1.980      4.6660E-03
   2    9.999       9.492       8.909       8.198       7.348       6.378       5.187       3.714       1.965      4.6295E-03
   3    9.999       9.435       8.770       7.939       6.978       6.110       5.036       3.641       1.936      4.5622E-03
   4    9.999       9.363       8.573       7.488       6.125       5.643       4.823       3.551       1.904      4.4860E-03
   5    9.999       9.320       8.421       6.945       3.928       5.077       4.658       3.498       1.887      4.4469E-03
   6    9.999       9.364       8.575       7.491       6.128       5.646       4.825       3.552       1.905      4.4876E-03
   7    9.999       9.438       8.776       7.947       6.988       6.118       5.042       3.645       1.938      4.5668E-03
   8    9.999       9.499       8.924       8.219       7.371       6.399       5.202       3.723       1.969      4.6403E-03
   9    9.999       9.538       9.009       8.359       7.547       6.543       5.295       3.773       1.990      4.6897E-03
  10    9.999       9.555       9.047       8.417       7.616       6.602       5.335       3.796       2.000      4.7132E-03
1
              HEAD IN LAYER   4 AT END OF TIME STEP  72 IN STRESS PERIOD    3
  ---------------------------------------------------------------------------

            1           2           3           4           5           6           7           8           9          10
 ........................................................................................................................
   1    9.999       9.519       8.971       8.304       7.484       6.484       5.249       3.743       1.974      4.7184E-03
   2    9.999       9.489       8.904       8.191       7.339       6.367       5.177       3.705       1.959      4.6811E-03
   3    9.999       9.432       8.764       7.930       6.968       6.099       5.025       3.632       1.930      4.6125E-03
   4    9.999       9.360       8.566       7.478       6.119       5.632       4.812       3.542       1.897      4.5350E-03
   5    9.999       9.316       8.414       6.940       4.144       5.073       4.647       3.488       1.881      4.4952E-03
   6    9.999       9.361       8.568       7.481       6.123       5.634       4.814       3.543       1.898      4.5366E-03
   7    9.999       9.435       8.770       7.939       6.977       6.107       5.032       3.636       1.932      4.6172E-03
   8    9.999       9.497       8.919       8.211       7.362       6.389       5.193       3.715       1.963      4.6923E-03
   9    9.999       9.535       9.005       8.352       7.539       6.534       5.286       3.765       1.985      4.7428E-03
  10    9.999       9.553       9.042       8.410       7.608       6.593       5.327       3.789       1.995      4.7668E-03
1
              HEAD IN LAYER   5 AT END OF TIME STEP  72 IN STRESS PERIOD    3
  ---------------------------------------------------------------------------

            1           2           3           4           5           6           7           8           9          10
 ........................................................................................................................
   1    9.999       9.517       8.968       8.300       7.479       6.479       5.245       3.739       1.971      4.7195E-03
   2    9.999       9.488       8.901       8.187       7.334       6.362       5.172       3.701       1.956      4.6821E-03
   3    9.999       9.430       8.761       7.926       6.963       6.093       5.020       3.627       1.927      4.6132E-03
   4    9.999       9.358       8.563       7.474       6.117       5.626       4.806       3.537       1.894      4.5353E-03
   5    9.999       9.314       8.410       6.939       4.249       5.071       4.642       3.484       1.877      4.4954E-03
   6    9.999       9.359       8.565       7.477       6.121       5.629       4.809       3.539       1.895      4.5370E-03
   7    9.999       9.433       8.767       7.934       6.972       6.102       5.027       3.631       1.929      4.6179E-03
   8    9.999       9.495       8.916       8.208       7.358       6.384       5.188       3.711       1.960      4.6934E-03
   9    9.999       9.534       9.003       8.349       7.535       6.529       5.282       3.761       1.982      4.7442E-03
  10    9.999       9.552       9.040       8.407       7.604       6.589       5.322       3.785       1.992      4.7684E-03

 HEAD WILL BE SAVED ON UNIT   51 AT END OF TIME STEP   72, STRESS PERIOD    3

 DRAWDOWN WILL BE SAVED ON UNIT   52 AT END OF TIME STEP   72, STRESS PERIOD    3
1
  VOLUMETRIC BUDGET FOR ENTIRE MODEL AT END OF TIME STEP   72, STRESS PERIOD   3
  ------------------------------------------------------------------------------

     CUMULATIVE VOLUMES      L**3       RATES FOR THIS TIME STEP      L**3/T
     ------------------                 ------------------------

           IN:                                      IN:
           ---                                      ---
             STORAGE =      420978.0625               STORAGE =        1158.9066
       CONSTANT HEAD =           0.0000         CONSTANT HEAD =           0.0000
               WELLS =           0.0000                 WELLS =           0.0000
     HEAD DEP BOUNDS =       16855.3809       HEAD DEP BOUNDS =         325.3289

            TOTAL IN =      437833.4375              TOTAL IN =        1484.2356

          OUT:                                     OUT:
          ----                                     ----
             STORAGE =           0.0000               STORAGE =           0.0000
       CONSTANT HEAD =           0.0000         CONSTANT HEAD =           0.0000
               WELLS =       36000.0000                 WELLS =         500.0000
     HEAD DEP BOUNDS =      401834.2500       HEAD DEP BOUNDS =         984.2386

           TOTAL OUT =      437834.2500             TOTAL OUT =        1484.2386

            IN - OUT =          -0.8125              IN - OUT =      -3.0518E-03

 PERCENT DISCREPANCY =          -0.00     PERCENT DISCREPANCY =          -0.00






         TIME SUMMARY AT END OF TIME STEP   72 IN STRESS PERIOD    3
                    SECONDS     MINUTES      HOURS       DAYS        YEARS
                    -----------------------------------------------------------
   TIME STEP LENGTH  86400.      1440.0      24.000      1.0000     2.73785E-03
 STRESS PERIOD TIME 6.22080E+06 1.03680E+05  1728.0      72.000     0.19713    
         TOTAL TIME 1.49472E+07 2.49120E+05  4152.0      173.00     0.47365    
1
 
 SOLVING FOR HEAD 

 OUTPUT CONTROL FOR STRESS PERIOD    3   TIME STEP   73
    SAVE HEAD FOR ALL LAYERS
    SAVE DRAWDOWN FOR ALL LAYERS
    SAVE BUDGET
    PRINT HEAD FOR ALL LAYERS
    PRINT BUDGET
 UBDSV1 SAVING "         STORAGE" ON UNIT  53 AT TIME STEP 73, STRESS PERIOD   3
 UBDSV2 SAVING "   CONSTANT HEAD" ON UNIT  53 AT TIME STEP 73, STRESS PERIOD   3
 UBDSV1 SAVING "FLOW RIGHT FACE " ON UNIT  53 AT TIME STEP 73, STRESS PERIOD   3
 UBDSV1 SAVING "FLOW FRONT FACE " ON UNIT  53 AT TIME STEP 73, STRESS PERIOD   3
 UBDSV1 SAVING "FLOW LOWER FACE " ON UNIT  53 AT TIME STEP 73, STRESS PERIOD   3
1
              HEAD IN LAYER   1 AT END OF TIME STEP  73 IN STRESS PERIOD    3
  ---------------------------------------------------------------------------

            1           2           3           4           5           6           7           8           9          10
 ........................................................................................................................
   1    9.999       9.525       8.983       8.321       7.505       6.507       5.272       3.764       1.990      1.7471E-03
   2    9.999       9.496       8.917       8.209       7.361       6.391       5.200       3.726       1.975      1.7323E-03
   3    9.999       9.439       8.779       7.952       6.993       6.125       5.050       3.653       1.946      1.7052E-03
   4    9.999       9.368       8.583       7.502       6.134       5.658       4.837       3.564       1.914      1.6745E-03
   5    9.999       9.325       8.432       6.957       3.218       5.082       4.672       3.510       1.897      1.6587E-03
   6    9.999       9.370       8.585       7.505       6.137       5.660       4.839       3.565       1.915      1.6752E-03
   7    9.999       9.442       8.785       7.960       7.002       6.133       5.056       3.657       1.948      1.7071E-03
   8    9.999       9.503       8.931       8.229       7.384       6.412       5.216       3.736       1.979      1.7366E-03
   9    9.999       9.541       9.016       8.368       7.558       6.555       5.308       3.785       2.000      1.7567E-03
  10    9.999       9.559       9.053       8.425       7.626       6.614       5.348       3.808       2.010      1.7659E-03
1
              HEAD IN LAYER   2 AT END OF TIME STEP  73 IN STRESS PERIOD    3
  ---------------------------------------------------------------------------

            1           2           3           4           5           6           7           8           9          10
 ........................................................................................................................
   1    9.999       9.520       8.974       8.308       7.489       6.490       5.257       3.751       1.982      4.1460E-03
   2    9.999       9.491       8.907       8.195       7.345       6.374       5.184       3.713       1.967      4.1132E-03
   3    9.999       9.433       8.767       7.936       6.974       6.106       5.033       3.640       1.938      4.0527E-03
   4    9.999       9.362       8.570       7.485       6.115       5.638       4.820       3.550       1.905      3.9841E-03
   5    9.999       9.318       8.418       6.938       3.565       5.065       4.654       3.497       1.889      3.9489E-03
   6    9.999       9.363       8.572       7.487       6.118       5.641       4.822       3.551       1.906      3.9856E-03
   7    9.999       9.436       8.773       7.944       6.984       6.115       5.040       3.644       1.940      4.0568E-03
   8    9.999       9.498       8.921       8.216       7.368       6.395       5.200       3.723       1.971      4.1230E-03
   9    9.999       9.537       9.007       8.356       7.544       6.540       5.293       3.773       1.992      4.1675E-03
  10    9.999       9.554       9.045       8.414       7.613       6.599       5.334       3.796       2.002      4.1886E-03
1
              HEAD IN LAYER   3 AT END OF TIME STEP  73 IN STRESS PERIOD    3
  ---------------------------------------------------------------------------

            1           2           3           4           5           6           7           8           9          10
 ........................................................................................................................
   1    9.999       9.516       8.966       8.297       7.476       6.476       5.243       3.739       1.973      4.6494E-03
   2    9.999       9.486       8.898       8.183       7.331       6.359       5.170       3.701       1.957      4.6123E-03
   3    9.999       9.429       8.758       7.922       6.959       6.090       5.018       3.627       1.929      4.5440E-03
   4    9.999       9.357       8.560       7.470       6.103       5.621       4.803       3.536       1.896      4.4669E-03
   5    9.999       9.313       8.408       6.927       3.905       5.055       4.638       3.483       1.879      4.4273E-03
   6    9.999       9.358       8.562       7.473       6.106       5.624       4.806       3.538       1.896      4.4685E-03
   7    9.999       9.432       8.764       7.931       6.968       6.098       5.024       3.631       1.931      4.5488E-03
   8    9.999       9.494       8.914       8.205       7.354       6.381       5.186       3.711       1.962      4.6236E-03
   9    9.999       9.533       9.000       8.346       7.532       6.526       5.280       3.762       1.984      4.6740E-03
  10    9.999       9.551       9.038       8.404       7.601       6.586       5.321       3.785       1.994      4.6980E-03
1
              HEAD IN LAYER   4 AT END OF TIME STEP  73 IN STRESS PERIOD    3
  ---------------------------------------------------------------------------

            1           2           3           4           5           6           7           8           9          10
 ........................................................................................................................
   1    9.999       9.513       8.961       8.290       7.467       6.467       5.233       3.731       1.967      4.7017E-03
   2    9.999       9.483       8.893       8.176       7.321       6.349       5.160       3.692       1.951      4.6637E-03
   3    9.999       9.426       8.752       7.914       6.948       6.079       5.007       3.618       1.922      4.5941E-03
   4    9.999       9.353       8.553       7.460       6.098       5.610       4.792       3.527       1.889      4.5156E-03
   5    9.999       9.309       8.400       6.922       4.121       5.050       4.627       3.473       1.872      4.4755E-03
   6    9.999       9.354       8.556       7.463       6.101       5.613       4.795       3.529       1.890      4.5174E-03
   7    9.999       9.429       8.758       7.922       6.958       6.088       5.014       3.622       1.924      4.5991E-03
   8    9.999       9.491       8.908       8.197       7.345       6.371       5.176       3.702       1.956      4.6754E-03
   9    9.999       9.531       8.996       8.339       7.523       6.517       5.271       3.754       1.978      4.7270E-03
  10    9.999       9.549       9.034       8.398       7.593       6.578       5.312       3.777       1.988      4.7516E-03
1
              HEAD IN LAYER   5 AT END OF TIME STEP  73 IN STRESS PERIOD    3
  ---------------------------------------------------------------------------

            1           2           3           4           5           6           7           8           9          10
 ........................................................................................................................
   1    9.999       9.512       8.958       8.286       7.462       6.462       5.229       3.726       1.964      4.7028E-03
   2    9.999       9.482       8.890       8.172       7.316       6.344       5.155       3.688       1.948      4.6647E-03
   3    9.999       9.424       8.749       7.909       6.943       6.073       5.002       3.613       1.919      4.5948E-03
   4    9.999       9.351       8.550       7.456       6.096       5.604       4.787       3.522       1.886      4.5160E-03
   5    9.999       9.308       8.397       6.920       4.225       5.048       4.622       3.469       1.869      4.4757E-03
   6    9.999       9.353       8.552       7.459       6.099       5.607       4.789       3.524       1.887      4.5178E-03
   7    9.999       9.427       8.755       7.918       6.953       6.082       5.009       3.618       1.921      4.5998E-03
   8    9.999       9.490       8.906       8.193       7.341       6.366       5.172       3.698       1.953      4.6765E-03
   9    9.999       9.529       8.993       8.336       7.519       6.513       5.267       3.750       1.975      4.7284E-03
  10    9.999       9.547       9.032       8.395       7.590       6.574       5.308       3.773       1.985      4.7532E-03

 HEAD WILL BE SAVED ON UNIT   51 AT END OF TIME STEP   73, STRESS PERIOD    3

 DRAWDOWN WILL BE SAVED ON UNIT   52 AT END OF TIME STEP   73, STRESS PERIOD    3
1
  VOLUMETRIC BUDGET FOR ENTIRE MODEL AT END OF TIME STEP   73, STRESS PERIOD   3
  ------------------------------------------------------------------------------

     CUMULATIVE VOLUMES      L**3       RATES FOR THIS TIME STEP      L**3/T
     ------------------                 ------------------------

           IN:                                      IN:
           ---                                      ---
             STORAGE =      422129.7812               STORAGE =        1151.7094
       CONSTANT HEAD =           0.0000         CONSTANT HEAD =           0.0000
               WELLS =           0.0000                 WELLS =           0.0000
     HEAD DEP BOUNDS =       17184.1191       HEAD DEP BOUNDS =         328.7383

            TOTAL IN =      439313.9062              TOTAL IN =        1480.4476

          OUT:                                     OUT:
          ----                                     ----
             STORAGE =           0.0000               STORAGE =           0.0000
       CONSTANT HEAD =           0.0000         CONSTANT HEAD =           0.0000
               WELLS =       36500.0000                 WELLS =         500.0000
     HEAD DEP BOUNDS =      402814.6875       HEAD DEP BOUNDS =         980.4470

           TOTAL OUT =      439314.6875             TOTAL OUT =        1480.4470

            IN - OUT =          -0.7812              IN - OUT =       6.1035E-04

 PERCENT DISCREPANCY =          -0.00     PERCENT DISCREPANCY =           0.00






         TIME SUMMARY AT END OF TIME STEP   73 IN STRESS PERIOD    3
                    SECONDS     MINUTES      HOURS       DAYS        YEARS
                    -----------------------------------------------------------
   TIME STEP LENGTH  86400.      1440.0      24.000      1.0000     2.73785E-03
 STRESS PERIOD TIME 6.30720E+06 1.05120E+05  1752.0      73.000     0.19986    
         TOTAL TIME 1.50336E+07 2.50560E+05  4176.0      174.00     0.47639    
1
 
 SOLVING FOR HEAD 

 OUTPUT CONTROL FOR STRESS PERIOD    3   TIME STEP   74
    SAVE HEAD FOR ALL LAYERS
    SAVE DRAWDOWN FOR ALL LAYERS
    SAVE BUDGET
    PRINT HEAD FOR ALL LAYERS
    PRINT BUDGET
 UBDSV1 SAVING "         STORAGE" ON UNIT  53 AT TIME STEP 74, STRESS PERIOD   3
 UBDSV2 SAVING "   CONSTANT HEAD" ON UNIT  53 AT TIME STEP 74, STRESS PERIOD   3
 UBDSV1 SAVING "FLOW RIGHT FACE " ON UNIT  53 AT TIME STEP 74, STRESS PERIOD   3
 UBDSV1 SAVING "FLOW FRONT FACE " ON UNIT  53 AT TIME STEP 74, STRESS PERIOD   3
 UBDSV1 SAVING "FLOW LOWER FACE " ON UNIT  53 AT TIME STEP 74, STRESS PERIOD   3
1
              HEAD IN LAYER   1 AT END OF TIME STEP  74 IN STRESS PERIOD    3
  ---------------------------------------------------------------------------

            1           2           3           4           5           6           7           8           9          10
 ........................................................................................................................
   1    9.999       9.520       8.973       8.307       7.488       6.489       5.256       3.751       1.983      1.7403E-03
   2    9.999       9.490       8.906       8.194       7.343       6.373       5.183       3.713       1.968      1.7252E-03
   3    9.999       9.433       8.767       7.935       6.973       6.104       5.032       3.639       1.939      1.6978E-03
   4    9.999       9.362       8.570       7.484       6.112       5.635       4.817       3.549       1.906      1.6668E-03
   5    9.999       9.319       8.419       6.939       3.194       5.059       4.652       3.495       1.889      1.6507E-03
   6    9.999       9.363       8.572       7.487       6.115       5.638       4.820       3.550       1.907      1.6675E-03
   7    9.999       9.436       8.773       7.943       6.982       6.113       5.038       3.643       1.941      1.6997E-03
   8    9.999       9.498       8.921       8.215       7.367       6.394       5.199       3.723       1.972      1.7298E-03
   9    9.999       9.537       9.007       8.355       7.543       6.539       5.292       3.773       1.994      1.7502E-03
  10    9.999       9.554       9.044       8.413       7.612       6.598       5.333       3.796       2.004      1.7599E-03
1
              HEAD IN LAYER   2 AT END OF TIME STEP  74 IN STRESS PERIOD    3
  ---------------------------------------------------------------------------

            1           2           3           4           5           6           7           8           9          10
 ........................................................................................................................
   1    9.999       9.515       8.963       8.293       7.472       6.473       5.241       3.739       1.975      4.1312E-03
   2    9.999       9.485       8.896       8.180       7.327       6.356       5.167       3.700       1.959      4.0977E-03
   3    9.999       9.427       8.755       7.919       6.955       6.086       5.015       3.626       1.930      4.0363E-03
   4    9.999       9.355       8.557       7.467       6.093       5.616       4.800       3.535       1.897      3.9670E-03
   5    9.999       9.312       8.405       6.919       3.541       5.042       4.634       3.482       1.880      3.9315E-03
   6    9.999       9.356       8.560       7.469       6.096       5.620       4.803       3.537       1.898      3.9685E-03
   7    9.999       9.430       8.762       7.928       6.964       6.095       5.022       3.630       1.932      4.0407E-03
   8    9.999       9.493       8.911       8.201       7.351       6.377       5.184       3.711       1.964      4.1080E-03
   9    9.999       9.532       8.998       8.343       7.528       6.524       5.278       3.762       1.986      4.1534E-03
  10    9.999       9.550       9.036       8.402       7.598       6.584       5.319       3.785       1.996      4.1751E-03
1
              HEAD IN LAYER   3 AT END OF TIME STEP  74 IN STRESS PERIOD    3
  ---------------------------------------------------------------------------

            1           2           3           4           5           6           7           8           9          10
 ........................................................................................................................
   1    9.999       9.511       8.956       8.283       7.459       6.459       5.227       3.726       1.966      4.6329E-03
   2    9.999       9.481       8.888       8.168       7.313       6.341       5.153       3.688       1.950      4.5951E-03
   3    9.999       9.423       8.746       7.906       6.939       6.070       5.000       3.613       1.921      4.5259E-03
   4    9.999       9.350       8.547       7.452       6.082       5.599       4.784       3.522       1.888      4.4478E-03
   5    9.999       9.306       8.394       6.908       3.881       5.032       4.618       3.468       1.871      4.4079E-03
   6    9.999       9.351       8.550       7.455       6.085       5.602       4.786       3.523       1.888      4.4496E-03
   7    9.999       9.426       8.753       7.915       6.949       6.079       5.006       3.617       1.923      4.5309E-03
   8    9.999       9.489       8.903       8.190       7.337       6.363       5.170       3.698       1.955      4.6069E-03
   9    9.999       9.528       8.991       8.333       7.516       6.510       5.265       3.750       1.977      4.6584E-03
  10    9.999       9.546       9.030       8.392       7.587       6.571       5.307       3.774       1.987      4.6829E-03
1
              HEAD IN LAYER   4 AT END OF TIME STEP  74 IN STRESS PERIOD    3
  ---------------------------------------------------------------------------

            1           2           3           4           5           6           7           8           9          10
 ........................................................................................................................
   1    9.999       9.508       8.951       8.275       7.450       6.449       5.217       3.718       1.960      4.6850E-03
   2    9.999       9.478       8.882       8.160       7.303       6.330       5.143       3.679       1.944      4.6465E-03
   3    9.999       9.419       8.740       7.897       6.929       6.059       4.989       3.604       1.915      4.5759E-03
   4    9.999       9.347       8.541       7.442       6.077       5.588       4.773       3.512       1.881      4.4964E-03
   5    9.999       9.303       8.387       6.903       4.097       5.028       4.607       3.458       1.864      4.4559E-03
   6    9.999       9.348       8.543       7.446       6.080       5.591       4.776       3.514       1.882      4.4983E-03
   7    9.999       9.423       8.747       7.906       6.939       6.068       4.996       3.609       1.917      4.5810E-03
   8    9.999       9.486       8.898       8.183       7.328       6.353       5.160       3.690       1.949      4.6586E-03
   9    9.999       9.526       8.986       8.326       7.508       6.501       5.256       3.742       1.971      4.7112E-03
  10    9.999       9.544       9.025       8.386       7.579       6.563       5.298       3.766       1.982      4.7364E-03
1
              HEAD IN LAYER   5 AT END OF TIME STEP  74 IN STRESS PERIOD    3
  ---------------------------------------------------------------------------

            1           2           3           4           5           6           7           8           9          10
 ........................................................................................................................
   1    9.999       9.507       8.948       8.272       7.446       6.444       5.213       3.714       1.957      4.6862E-03
   2    9.999       9.477       8.880       8.157       7.299       6.325       5.138       3.675       1.941      4.6475E-03
   3    9.999       9.418       8.737       7.893       6.924       6.053       4.984       3.600       1.912      4.5765E-03
   4    9.999       9.345       8.537       7.438       6.075       5.583       4.768       3.508       1.878      4.4968E-03
   5    9.999       9.301       8.384       6.901       4.202       5.026       4.602       3.454       1.861      4.4562E-03
   6    9.999       9.346       8.540       7.441       6.078       5.586       4.770       3.509       1.879      4.4987E-03
   7    9.999       9.421       8.744       7.902       6.934       6.063       4.991       3.604       1.914      4.5818E-03
   8    9.999       9.485       8.896       8.179       7.324       6.348       5.155       3.686       1.946      4.6598E-03
   9    9.999       9.525       8.984       8.323       7.504       6.497       5.252       3.738       1.968      4.7126E-03
  10    9.999       9.543       9.023       8.383       7.575       6.558       5.294       3.762       1.979      4.7380E-03

 HEAD WILL BE SAVED ON UNIT   51 AT END OF TIME STEP   74, STRESS PERIOD    3

 DRAWDOWN WILL BE SAVED ON UNIT   52 AT END OF TIME STEP   74, STRESS PERIOD    3
1
  VOLUMETRIC BUDGET FOR ENTIRE MODEL AT END OF TIME STEP   74, STRESS PERIOD   3
  ------------------------------------------------------------------------------

     CUMULATIVE VOLUMES      L**3       RATES FOR THIS TIME STEP      L**3/T
     ------------------                 ------------------------

           IN:                                      IN:
           ---                                      ---
             STORAGE =      423274.3438               STORAGE =        1144.5522
       CONSTANT HEAD =           0.0000         CONSTANT HEAD =           0.0000
               WELLS =           0.0000                 WELLS =           0.0000
     HEAD DEP BOUNDS =       17516.2422       HEAD DEP BOUNDS =         332.1235

            TOTAL IN =      440790.5938              TOTAL IN =        1476.6758

          OUT:                                     OUT:
          ----                                     ----
             STORAGE =           0.0000               STORAGE =           0.0000
       CONSTANT HEAD =           0.0000         CONSTANT HEAD =           0.0000
               WELLS =       37000.0000                 WELLS =         500.0000
     HEAD DEP BOUNDS =      403791.3750       HEAD DEP BOUNDS =         976.6761

           TOTAL OUT =      440791.3750             TOTAL OUT =        1476.6760

            IN - OUT =          -0.7812              IN - OUT =      -2.4414E-04

 PERCENT DISCREPANCY =          -0.00     PERCENT DISCREPANCY =          -0.00






         TIME SUMMARY AT END OF TIME STEP   74 IN STRESS PERIOD    3
                    SECONDS     MINUTES      HOURS       DAYS        YEARS
                    -----------------------------------------------------------
   TIME STEP LENGTH  86400.      1440.0      24.000      1.0000     2.73785E-03
 STRESS PERIOD TIME 6.39360E+06 1.06560E+05  1776.0      74.000     0.20260    
         TOTAL TIME 1.51200E+07 2.52000E+05  4200.0      175.00     0.47912    
1
 
 SOLVING FOR HEAD 

 OUTPUT CONTROL FOR STRESS PERIOD    3   TIME STEP   75
    SAVE HEAD FOR ALL LAYERS
    SAVE DRAWDOWN FOR ALL LAYERS
    SAVE BUDGET
    PRINT HEAD FOR ALL LAYERS
    PRINT BUDGET
 UBDSV1 SAVING "         STORAGE" ON UNIT  53 AT TIME STEP 75, STRESS PERIOD   3
 UBDSV2 SAVING "   CONSTANT HEAD" ON UNIT  53 AT TIME STEP 75, STRESS PERIOD   3
 UBDSV1 SAVING "FLOW RIGHT FACE " ON UNIT  53 AT TIME STEP 75, STRESS PERIOD   3
 UBDSV1 SAVING "FLOW FRONT FACE " ON UNIT  53 AT TIME STEP 75, STRESS PERIOD   3
 UBDSV1 SAVING "FLOW LOWER FACE " ON UNIT  53 AT TIME STEP 75, STRESS PERIOD   3
1
              HEAD IN LAYER   1 AT END OF TIME STEP  75 IN STRESS PERIOD    3
  ---------------------------------------------------------------------------

            1           2           3           4           5           6           7           8           9          10
 ........................................................................................................................
   1    9.999       9.515       8.963       8.293       7.471       6.472       5.240       3.738       1.976      1.7336E-03
   2    9.999       9.485       8.895       8.179       7.326       6.354       5.166       3.700       1.960      1.7184E-03
   3    9.999       9.427       8.755       7.918       6.953       6.084       5.013       3.625       1.931      1.6904E-03
   4    9.999       9.355       8.557       7.466       6.090       5.614       4.798       3.534       1.898      1.6590E-03
   5    9.999       9.312       8.405       6.920       3.171       5.036       4.632       3.480       1.881      1.6429E-03
   6    9.999       9.356       8.560       7.469       6.094       5.617       4.800       3.535       1.898      1.6597E-03
   7    9.999       9.430       8.761       7.927       6.963       6.093       5.020       3.630       1.933      1.6924E-03
   8    9.999       9.493       8.911       8.201       7.350       6.376       5.183       3.710       1.965      1.7231E-03
   9    9.999       9.532       8.998       8.342       7.527       6.523       5.277       3.761       1.987      1.7438E-03
  10    9.999       9.550       9.036       8.401       7.597       6.583       5.319       3.785       1.997      1.7537E-03
1
              HEAD IN LAYER   2 AT END OF TIME STEP  75 IN STRESS PERIOD    3
  ---------------------------------------------------------------------------

            1           2           3           4           5           6           7           8           9          10
 ........................................................................................................................
   1    9.999       9.509       8.953       8.279       7.455       6.455       5.225       3.726       1.968      4.1164E-03
   2    9.999       9.479       8.885       8.165       7.309       6.337       5.151       3.687       1.952      4.0824E-03
   3    9.999       9.421       8.744       7.902       6.935       6.066       4.997       3.612       1.923      4.0201E-03
   4    9.999       9.349       8.545       7.449       6.072       5.595       4.781       3.521       1.889      3.9500E-03
   5    9.999       9.305       8.392       6.900       3.517       5.020       4.615       3.467       1.872      3.9141E-03
   6    9.999       9.350       8.547       7.452       6.075       5.598       4.783       3.522       1.890      3.9516E-03
   7    9.999       9.425       8.750       7.911       6.945       6.075       5.004       3.617       1.925      4.0247E-03
   8    9.999       9.487       8.901       8.187       7.334       6.360       5.168       3.698       1.957      4.0931E-03
   9    9.999       9.527       8.989       8.330       7.513       6.507       5.263       3.750       1.979      4.1394E-03
  10    9.999       9.545       9.027       8.389       7.583       6.568       5.305       3.774       1.990      4.1616E-03
1
              HEAD IN LAYER   3 AT END OF TIME STEP  75 IN STRESS PERIOD    3
  ---------------------------------------------------------------------------

            1           2           3           4           5           6           7           8           9          10
 ........................................................................................................................
   1    9.999       9.505       8.946       8.269       7.442       6.441       5.211       3.714       1.959      4.6165E-03
   2    9.999       9.475       8.877       8.153       7.295       6.322       5.136       3.675       1.943      4.5781E-03
   3    9.999       9.417       8.735       7.890       6.920       6.050       4.982       3.599       1.913      4.5079E-03
   4    9.999       9.344       8.535       7.434       6.060       5.578       4.765       3.507       1.880      4.4289E-03
   5    9.999       9.300       8.381       6.889       3.858       5.010       4.599       3.453       1.863      4.3887E-03
   6    9.999       9.345       8.537       7.437       6.064       5.581       4.767       3.509       1.880      4.4308E-03
   7    9.999       9.420       8.741       7.899       6.930       6.059       4.989       3.604       1.915      4.5131E-03
   8    9.999       9.483       8.893       8.176       7.320       6.345       5.153       3.686       1.948      4.5904E-03
   9    9.999       9.524       8.982       8.320       7.501       6.494       5.250       3.738       1.970      4.6428E-03
  10    9.999       9.542       9.021       8.380       7.572       6.556       5.292       3.762       1.981      4.6680E-03
1
              HEAD IN LAYER   4 AT END OF TIME STEP  75 IN STRESS PERIOD    3
  ---------------------------------------------------------------------------

            1           2           3           4           5           6           7           8           9          10
 ........................................................................................................................
   1    9.999       9.503       8.941       8.261       7.433       6.432       5.201       3.706       1.953      4.6685E-03
   2    9.999       9.472       8.872       8.146       7.286       6.312       5.126       3.666       1.937      4.6293E-03
   3    9.999       9.413       8.729       7.881       6.909       6.039       4.971       3.590       1.907      4.5577E-03
   4    9.999       9.340       8.528       7.425       6.055       5.567       4.754       3.498       1.873      4.4774E-03
   5    9.999       9.296       8.374       6.885       4.074       5.005       4.588       3.444       1.856      4.4365E-03
   6    9.999       9.341       8.530       7.428       6.059       5.570       4.757       3.500       1.874      4.4793E-03
   7    9.999       9.417       8.735       7.890       6.920       6.048       4.979       3.595       1.909      4.5631E-03
   8    9.999       9.481       8.888       8.168       7.311       6.336       5.144       3.677       1.942      4.6420E-03
   9    9.999       9.521       8.977       8.314       7.493       6.485       5.241       3.730       1.965      4.6955E-03
  10    9.999       9.540       9.017       8.374       7.564       6.547       5.284       3.755       1.976      4.7212E-03
1
              HEAD IN LAYER   5 AT END OF TIME STEP  75 IN STRESS PERIOD    3
  ---------------------------------------------------------------------------

            1           2           3           4           5           6           7           8           9          10
 ........................................................................................................................
   1    9.999       9.502       8.938       8.258       7.429       6.427       5.197       3.702       1.950      4.6696E-03
   2    9.999       9.471       8.869       8.142       7.281       6.307       5.121       3.662       1.934      4.6303E-03
   3    9.999       9.412       8.726       7.877       6.904       6.033       4.966       3.586       1.904      4.5584E-03
   4    9.999       9.338       8.525       7.420       6.054       5.561       4.749       3.493       1.870      4.4778E-03
   5    9.999       9.294       8.371       6.883       4.180       5.004       4.583       3.439       1.853      4.4368E-03
   6    9.999       9.340       8.527       7.423       6.057       5.564       4.751       3.495       1.871      4.4798E-03
   7    9.999       9.415       8.733       7.886       6.915       6.043       4.974       3.591       1.906      4.5639E-03
   8    9.999       9.479       8.885       8.165       7.307       6.331       5.139       3.673       1.939      4.6431E-03
   9    9.999       9.520       8.975       8.310       7.489       6.481       5.237       3.726       1.962      4.6970E-03
  10    9.999       9.539       9.014       8.371       7.561       6.543       5.280       3.751       1.973      4.7229E-03

 HEAD WILL BE SAVED ON UNIT   51 AT END OF TIME STEP   75, STRESS PERIOD    3

 DRAWDOWN WILL BE SAVED ON UNIT   52 AT END OF TIME STEP   75, STRESS PERIOD    3
1
  VOLUMETRIC BUDGET FOR ENTIRE MODEL AT END OF TIME STEP   75, STRESS PERIOD   3
  ------------------------------------------------------------------------------

     CUMULATIVE VOLUMES      L**3       RATES FOR THIS TIME STEP      L**3/T
     ------------------                 ------------------------

           IN:                                      IN:
           ---                                      ---
             STORAGE =      424411.7812               STORAGE =        1137.4318
       CONSTANT HEAD =           0.0000         CONSTANT HEAD =           0.0000
               WELLS =           0.0000                 WELLS =           0.0000
     HEAD DEP BOUNDS =       17851.7539       HEAD DEP BOUNDS =         335.5125

            TOTAL IN =      442263.5312              TOTAL IN =        1472.9442

          OUT:                                     OUT:
          ----                                     ----
             STORAGE =           0.0000               STORAGE =           0.0000
       CONSTANT HEAD =           0.0000         CONSTANT HEAD =           0.0000
               WELLS =       37500.0000                 WELLS =         500.0000
     HEAD DEP BOUNDS =      404764.3125       HEAD DEP BOUNDS =         972.9285

           TOTAL OUT =      442264.3125             TOTAL OUT =        1472.9285

            IN - OUT =          -0.7812              IN - OUT =       1.5747E-02

 PERCENT DISCREPANCY =          -0.00     PERCENT DISCREPANCY =           0.00






         TIME SUMMARY AT END OF TIME STEP   75 IN STRESS PERIOD    3
                    SECONDS     MINUTES      HOURS       DAYS        YEARS
                    -----------------------------------------------------------
   TIME STEP LENGTH  86400.      1440.0      24.000      1.0000     2.73785E-03
 STRESS PERIOD TIME 6.48000E+06 1.08000E+05  1800.0      75.000     0.20534    
         TOTAL TIME 1.52064E+07 2.53440E+05  4224.0      176.00     0.48186    
1
 
 SOLVING FOR HEAD 

 OUTPUT CONTROL FOR STRESS PERIOD    3   TIME STEP   76
    SAVE HEAD FOR ALL LAYERS
    SAVE DRAWDOWN FOR ALL LAYERS
    SAVE BUDGET
    PRINT HEAD FOR ALL LAYERS
    PRINT BUDGET
 UBDSV1 SAVING "         STORAGE" ON UNIT  53 AT TIME STEP 76, STRESS PERIOD   3
 UBDSV2 SAVING "   CONSTANT HEAD" ON UNIT  53 AT TIME STEP 76, STRESS PERIOD   3
 UBDSV1 SAVING "FLOW RIGHT FACE " ON UNIT  53 AT TIME STEP 76, STRESS PERIOD   3
 UBDSV1 SAVING "FLOW FRONT FACE " ON UNIT  53 AT TIME STEP 76, STRESS PERIOD   3
 UBDSV1 SAVING "FLOW LOWER FACE " ON UNIT  53 AT TIME STEP 76, STRESS PERIOD   3
1
              HEAD IN LAYER   1 AT END OF TIME STEP  76 IN STRESS PERIOD    3
  ---------------------------------------------------------------------------

            1           2           3           4           5           6           7           8           9          10
 ........................................................................................................................
   1    9.999       9.509       8.953       8.279       7.454       6.454       5.224       3.726       1.969      1.7269E-03
   2    9.999       9.479       8.885       8.164       7.308       6.336       5.149       3.687       1.953      1.7115E-03
   3    9.999       9.421       8.743       7.902       6.934       6.064       4.995       3.611       1.923      1.6832E-03
   4    9.999       9.349       8.545       7.448       6.069       5.592       4.779       3.519       1.890      1.6514E-03
   5    9.999       9.305       8.392       6.901       3.147       5.014       4.612       3.465       1.872      1.6352E-03
   6    9.999       9.350       8.547       7.451       6.073       5.595       4.781       3.521       1.890      1.6520E-03
   7    9.999       9.425       8.750       7.911       6.944       6.073       5.002       3.616       1.925      1.6852E-03
   8    9.999       9.487       8.901       8.186       7.333       6.358       5.166       3.697       1.958      1.7165E-03
   9    9.999       9.527       8.988       8.329       7.512       6.506       5.262       3.750       1.980      1.7376E-03
  10    9.999       9.545       9.027       8.389       7.583       6.568       5.304       3.774       1.991      1.7477E-03
1
              HEAD IN LAYER   2 AT END OF TIME STEP  76 IN STRESS PERIOD    3
  ---------------------------------------------------------------------------

            1           2           3           4           5           6           7           8           9          10
 ........................................................................................................................
   1    9.999       9.504       8.943       8.265       7.439       6.438       5.209       3.714       1.961      4.1017E-03
   2    9.999       9.474       8.874       8.150       7.291       6.319       5.134       3.674       1.945      4.0672E-03
   3    9.999       9.415       8.732       7.886       6.916       6.046       4.979       3.599       1.915      4.0040E-03
   4    9.999       9.342       8.532       7.431       6.051       5.573       4.762       3.506       1.881      3.9331E-03
   5    9.999       9.298       8.379       6.882       3.494       4.998       4.595       3.452       1.864      3.8969E-03
   6    9.999       9.343       8.535       7.434       6.054       5.577       4.764       3.508       1.882      3.9348E-03
   7    9.999       9.419       8.739       7.895       6.926       6.055       4.986       3.603       1.917      4.0088E-03
   8    9.999       9.482       8.891       8.173       7.317       6.342       5.151       3.685       1.950      4.0783E-03
   9    9.999       9.522       8.980       8.317       7.498       6.491       5.248       3.738       1.973      4.1255E-03
  10    9.999       9.541       9.019       8.377       7.569       6.553       5.291       3.763       1.983      4.1482E-03
1
              HEAD IN LAYER   3 AT END OF TIME STEP  76 IN STRESS PERIOD    3
  ---------------------------------------------------------------------------

            1           2           3           4           5           6           7           8           9          10
 ........................................................................................................................
   1    9.999       9.500       8.936       8.254       7.425       6.424       5.195       3.702       1.952      4.6002E-03
   2    9.999       9.470       8.866       8.138       7.277       6.304       5.119       3.662       1.936      4.5612E-03
   3    9.999       9.411       8.723       7.873       6.900       6.030       4.964       3.585       1.906      4.4900E-03
   4    9.999       9.337       8.522       7.417       6.039       5.556       4.746       3.493       1.872      4.4101E-03
   5    9.999       9.293       8.368       6.871       3.835       4.988       4.579       3.438       1.854      4.3696E-03
   6    9.999       9.338       8.525       7.420       6.043       5.560       4.748       3.494       1.873      4.4121E-03
   7    9.999       9.414       8.730       7.883       6.911       6.039       4.971       3.590       1.908      4.4954E-03
   8    9.999       9.478       8.883       8.162       7.303       6.328       5.137       3.673       1.941      4.5739E-03
   9    9.999       9.519       8.973       8.307       7.485       6.478       5.235       3.726       1.964      4.6274E-03
  10    9.999       9.537       9.012       8.368       7.558       6.541       5.278       3.751       1.975      4.6531E-03
1
              HEAD IN LAYER   4 AT END OF TIME STEP  76 IN STRESS PERIOD    3
  ---------------------------------------------------------------------------

            1           2           3           4           5           6           7           8           9          10
 ........................................................................................................................
   1    9.999       9.498       8.931       8.247       7.417       6.414       5.186       3.693       1.947      4.6520E-03
   2    9.999       9.467       8.861       8.131       7.268       6.294       5.110       3.653       1.930      4.6122E-03
   3    9.999       9.407       8.717       7.865       6.890       6.019       4.953       3.577       1.899      4.5397E-03
   4    9.999       9.334       8.516       7.407       6.034       5.545       4.735       3.484       1.865      4.4585E-03
   5    9.999       9.289       8.361       6.866       4.052       4.983       4.568       3.429       1.848      4.4173E-03
   6    9.999       9.335       8.518       7.411       6.038       5.549       4.738       3.485       1.866      4.4605E-03
   7    9.999       9.411       8.724       7.874       6.901       6.029       4.961       3.582       1.902      4.5453E-03
   8    9.999       9.476       8.878       8.154       7.294       6.318       5.128       3.665       1.935      4.6254E-03
   9    9.999       9.516       8.968       8.301       7.477       6.469       5.226       3.719       1.958      4.6799E-03
  10    9.999       9.535       9.008       8.362       7.550       6.532       5.270       3.744       1.969      4.7062E-03
1
              HEAD IN LAYER   5 AT END OF TIME STEP  76 IN STRESS PERIOD    3
  ---------------------------------------------------------------------------

            1           2           3           4           5           6           7           8           9          10
 ........................................................................................................................
   1    9.999       9.496       8.928       8.244       7.412       6.410       5.181       3.689       1.944      4.6532E-03
   2    9.999       9.465       8.858       8.127       7.263       6.289       5.105       3.649       1.927      4.6132E-03
   3    9.999       9.406       8.714       7.860       6.885       6.014       4.948       3.572       1.896      4.5404E-03
   4    9.999       9.332       8.512       7.402       6.033       5.540       4.730       3.479       1.862      4.4589E-03
   5    9.999       9.288       8.358       6.865       4.157       4.982       4.563       3.424       1.845      4.4176E-03
   6    9.999       9.333       8.515       7.406       6.036       5.543       4.733       3.481       1.863      4.4610E-03
   7    9.999       9.410       8.721       7.870       6.896       6.024       4.956       3.577       1.899      4.5461E-03
   8    9.999       9.474       8.875       8.151       7.290       6.313       5.123       3.661       1.932      4.6265E-03
   9    9.999       9.515       8.966       8.297       7.473       6.465       5.222       3.715       1.955      4.6814E-03
  10    9.999       9.534       9.006       8.359       7.546       6.528       5.266       3.740       1.966      4.7079E-03

 HEAD WILL BE SAVED ON UNIT   51 AT END OF TIME STEP   76, STRESS PERIOD    3

 DRAWDOWN WILL BE SAVED ON UNIT   52 AT END OF TIME STEP   76, STRESS PERIOD    3
1
  VOLUMETRIC BUDGET FOR ENTIRE MODEL AT END OF TIME STEP   76, STRESS PERIOD   3
  ------------------------------------------------------------------------------

     CUMULATIVE VOLUMES      L**3       RATES FOR THIS TIME STEP      L**3/T
     ------------------                 ------------------------

           IN:                                      IN:
           ---                                      ---
             STORAGE =      425542.1250               STORAGE =        1130.3508
       CONSTANT HEAD =           0.0000         CONSTANT HEAD =           0.0000
               WELLS =           0.0000                 WELLS =           0.0000
     HEAD DEP BOUNDS =       18190.6094       HEAD DEP BOUNDS =         338.8546

            TOTAL IN =      443732.7500              TOTAL IN =        1469.2054

          OUT:                                     OUT:
          ----                                     ----
             STORAGE =           0.0000               STORAGE =           0.0000
       CONSTANT HEAD =           0.0000         CONSTANT HEAD =           0.0000
               WELLS =       38000.0000                 WELLS =         500.0000
     HEAD DEP BOUNDS =      405733.5312       HEAD DEP BOUNDS =         969.2092

           TOTAL OUT =      443733.5312             TOTAL OUT =        1469.2092

            IN - OUT =          -0.7812              IN - OUT =      -3.7842E-03

 PERCENT DISCREPANCY =          -0.00     PERCENT DISCREPANCY =          -0.00






         TIME SUMMARY AT END OF TIME STEP   76 IN STRESS PERIOD    3
                    SECONDS     MINUTES      HOURS       DAYS        YEARS
                    -----------------------------------------------------------
   TIME STEP LENGTH  86400.      1440.0      24.000      1.0000     2.73785E-03
 STRESS PERIOD TIME 6.56640E+06 1.09440E+05  1824.0      76.000     0.20808    
         TOTAL TIME 1.52928E+07 2.54880E+05  4248.0      177.00     0.48460    
1
 
 SOLVING FOR HEAD 

 OUTPUT CONTROL FOR STRESS PERIOD    3   TIME STEP   77
    SAVE HEAD FOR ALL LAYERS
    SAVE DRAWDOWN FOR ALL LAYERS
    SAVE BUDGET
    PRINT HEAD FOR ALL LAYERS
    PRINT BUDGET
 UBDSV1 SAVING "         STORAGE" ON UNIT  53 AT TIME STEP 77, STRESS PERIOD   3
 UBDSV2 SAVING "   CONSTANT HEAD" ON UNIT  53 AT TIME STEP 77, STRESS PERIOD   3
 UBDSV1 SAVING "FLOW RIGHT FACE " ON UNIT  53 AT TIME STEP 77, STRESS PERIOD   3
 UBDSV1 SAVING "FLOW FRONT FACE " ON UNIT  53 AT TIME STEP 77, STRESS PERIOD   3
 UBDSV1 SAVING "FLOW LOWER FACE " ON UNIT  53 AT TIME STEP 77, STRESS PERIOD   3
1
              HEAD IN LAYER   1 AT END OF TIME STEP  77 IN STRESS PERIOD    3
  ---------------------------------------------------------------------------

            1           2           3           4           5           6           7           8           9          10
 ........................................................................................................................
   1    9.999       9.504       8.943       8.265       7.437       6.437       5.208       3.713       1.962      1.7204E-03
   2    9.999       9.474       8.874       8.149       7.290       6.317       5.133       3.674       1.946      1.7047E-03
   3    9.999       9.415       8.732       7.885       6.915       6.044       4.977       3.598       1.915      1.6760E-03
   4    9.999       9.342       8.532       7.430       6.048       5.571       4.759       3.505       1.882      1.6438E-03
   5    9.999       9.299       8.379       6.883       3.124       4.992       4.592       3.450       1.864      1.6275E-03
   6    9.999       9.344       8.534       7.434       6.052       5.574       4.762       3.506       1.882      1.6445E-03
   7    9.999       9.419       8.738       7.895       6.925       6.054       4.985       3.602       1.918      1.6782E-03
   8    9.999       9.482       8.890       8.172       7.316       6.341       5.150       3.685       1.951      1.7098E-03
   9    9.999       9.522       8.979       8.317       7.497       6.490       5.247       3.738       1.974      1.7312E-03
  10    9.999       9.541       9.019       8.377       7.568       6.552       5.290       3.762       1.984      1.7416E-03
1
              HEAD IN LAYER   2 AT END OF TIME STEP  77 IN STRESS PERIOD    3
  ---------------------------------------------------------------------------

            1           2           3           4           5           6           7           8           9          10
 ........................................................................................................................
   1    9.999       9.499       8.933       8.251       7.422       6.421       5.193       3.701       1.954      4.0872E-03
   2    9.999       9.468       8.864       8.135       7.274       6.301       5.117       3.661       1.938      4.0521E-03
   3    9.999       9.409       8.720       7.870       6.897       6.026       4.961       3.585       1.907      3.9880E-03
   4    9.999       9.336       8.520       7.413       6.030       5.552       4.743       3.492       1.873      3.9163E-03
   5    9.999       9.292       8.366       6.864       3.471       4.975       4.576       3.437       1.856      3.8799E-03
   6    9.999       9.337       8.522       7.417       6.033       5.555       4.745       3.493       1.874      3.9180E-03
   7    9.999       9.413       8.727       7.879       6.907       6.036       4.969       3.590       1.910      3.9930E-03
   8    9.999       9.477       8.881       8.158       7.300       6.324       5.135       3.673       1.943      4.0636E-03
   9    9.999       9.518       8.970       8.304       7.482       6.475       5.233       3.726       1.966      4.1117E-03
  10    9.999       9.536       9.010       8.365       7.555       6.538       5.277       3.751       1.977      4.1349E-03
1
              HEAD IN LAYER   3 AT END OF TIME STEP  77 IN STRESS PERIOD    3
  ---------------------------------------------------------------------------

            1           2           3           4           5           6           7           8           9          10
 ........................................................................................................................
   1    9.999       9.495       8.926       8.240       7.409       6.406       5.179       3.689       1.945      4.5839E-03
   2    9.999       9.464       8.856       8.123       7.260       6.286       5.103       3.649       1.929      4.5443E-03
   3    9.999       9.405       8.711       7.857       6.881       6.010       4.946       3.572       1.898      4.4722E-03
   4    9.999       9.331       8.510       7.399       6.019       5.535       4.727       3.478       1.864      4.3915E-03
   5    9.999       9.286       8.356       6.853       3.812       4.966       4.560       3.423       1.846      4.3506E-03
   6    9.999       9.332       8.512       7.402       6.022       5.539       4.730       3.480       1.865      4.3935E-03
   7    9.999       9.408       8.719       7.867       6.892       6.020       4.954       3.577       1.900      4.4779E-03
   8    9.999       9.473       8.873       8.147       7.287       6.310       5.121       3.661       1.934      4.5576E-03
   9    9.999       9.514       8.964       8.295       7.470       6.462       5.220       3.715       1.957      4.6120E-03
  10    9.999       9.533       9.004       8.356       7.543       6.525       5.264       3.740       1.969      4.6382E-03
1
              HEAD IN LAYER   4 AT END OF TIME STEP  77 IN STRESS PERIOD    3
  ---------------------------------------------------------------------------

            1           2           3           4           5           6           7           8           9          10
 ........................................................................................................................
   1    9.999       9.492       8.921       8.233       7.400       6.397       5.170       3.681       1.940      4.6356E-03
   2    9.999       9.461       8.850       8.116       7.250       6.276       5.093       3.641       1.923      4.5952E-03
   3    9.999       9.401       8.705       7.849       6.871       5.999       4.936       3.563       1.892      4.5217E-03
   4    9.999       9.327       8.503       7.390       6.014       5.524       4.716       3.469       1.858      4.4397E-03
   5    9.999       9.283       8.349       6.848       4.029       4.961       4.549       3.414       1.840      4.3982E-03
   6    9.999       9.329       8.506       7.393       6.018       5.528       4.719       3.471       1.858      4.4418E-03
   7    9.999       9.405       8.713       7.859       6.882       6.010       4.944       3.568       1.894      4.5276E-03
   8    9.999       9.470       8.868       8.140       7.278       6.301       5.112       3.653       1.928      4.6089E-03
   9    9.999       9.512       8.959       8.288       7.462       6.453       5.212       3.707       1.952      4.6645E-03
  10    9.999       9.531       8.999       8.350       7.536       6.517       5.256       3.733       1.963      4.6913E-03
1
              HEAD IN LAYER   5 AT END OF TIME STEP  77 IN STRESS PERIOD    3
  ---------------------------------------------------------------------------

            1           2           3           4           5           6           7           8           9          10
 ........................................................................................................................
   1    9.999       9.491       8.918       8.230       7.396       6.392       5.165       3.677       1.937      4.6368E-03
   2    9.999       9.460       8.848       8.112       7.246       6.271       5.088       3.636       1.920      4.5963E-03
   3    9.999       9.400       8.702       7.844       6.866       5.994       4.931       3.559       1.889      4.5225E-03
   4    9.999       9.326       8.500       7.385       6.012       5.519       4.711       3.465       1.854      4.4401E-03
   5    9.999       9.281       8.345       6.847       4.135       4.960       4.544       3.410       1.837      4.3985E-03
   6    9.999       9.327       8.502       7.389       6.016       5.523       4.714       3.467       1.855      4.4423E-03
   7    9.999       9.404       8.710       7.854       6.877       6.004       4.939       3.564       1.891      4.5284E-03
   8    9.999       9.469       8.865       8.136       7.273       6.296       5.107       3.649       1.926      4.6101E-03
   9    9.999       9.510       8.957       8.285       7.458       6.449       5.207       3.703       1.949      4.6659E-03
  10    9.999       9.530       8.997       8.347       7.532       6.513       5.251       3.729       1.960      4.6929E-03

 HEAD WILL BE SAVED ON UNIT   51 AT END OF TIME STEP   77, STRESS PERIOD    3

 DRAWDOWN WILL BE SAVED ON UNIT   52 AT END OF TIME STEP   77, STRESS PERIOD    3
1
  VOLUMETRIC BUDGET FOR ENTIRE MODEL AT END OF TIME STEP   77, STRESS PERIOD   3
  ------------------------------------------------------------------------------

     CUMULATIVE VOLUMES      L**3       RATES FOR THIS TIME STEP      L**3/T
     ------------------                 ------------------------

           IN:                                      IN:
           ---                                      ---
             STORAGE =      426665.4375               STORAGE =        1123.3186
       CONSTANT HEAD =           0.0000         CONSTANT HEAD =           0.0000
               WELLS =           0.0000                 WELLS =           0.0000
     HEAD DEP BOUNDS =       18532.8008       HEAD DEP BOUNDS =         342.1907

            TOTAL IN =      445198.2500              TOTAL IN =        1465.5093

          OUT:                                     OUT:
          ----                                     ----
             STORAGE =           0.0000               STORAGE =           0.0000
       CONSTANT HEAD =           0.0000         CONSTANT HEAD =           0.0000
               WELLS =       38500.0000                 WELLS =         500.0000
     HEAD DEP BOUNDS =      406699.0312       HEAD DEP BOUNDS =         965.5116

           TOTAL OUT =      445199.0312             TOTAL OUT =        1465.5116

            IN - OUT =          -0.7812              IN - OUT =      -2.3193E-03

 PERCENT DISCREPANCY =          -0.00     PERCENT DISCREPANCY =          -0.00






         TIME SUMMARY AT END OF TIME STEP   77 IN STRESS PERIOD    3
                    SECONDS     MINUTES      HOURS       DAYS        YEARS
                    -----------------------------------------------------------
   TIME STEP LENGTH  86400.      1440.0      24.000      1.0000     2.73785E-03
 STRESS PERIOD TIME 6.65280E+06 1.10880E+05  1848.0      77.000     0.21081    
         TOTAL TIME 1.53792E+07 2.56320E+05  4272.0      178.00     0.48734    
1
 
 SOLVING FOR HEAD 

 OUTPUT CONTROL FOR STRESS PERIOD    3   TIME STEP   78
    SAVE HEAD FOR ALL LAYERS
    SAVE DRAWDOWN FOR ALL LAYERS
    SAVE BUDGET
    PRINT HEAD FOR ALL LAYERS
    PRINT BUDGET
 UBDSV1 SAVING "         STORAGE" ON UNIT  53 AT TIME STEP 78, STRESS PERIOD   3
 UBDSV2 SAVING "   CONSTANT HEAD" ON UNIT  53 AT TIME STEP 78, STRESS PERIOD   3
 UBDSV1 SAVING "FLOW RIGHT FACE " ON UNIT  53 AT TIME STEP 78, STRESS PERIOD   3
 UBDSV1 SAVING "FLOW FRONT FACE " ON UNIT  53 AT TIME STEP 78, STRESS PERIOD   3
 UBDSV1 SAVING "FLOW LOWER FACE " ON UNIT  53 AT TIME STEP 78, STRESS PERIOD   3
1
              HEAD IN LAYER   1 AT END OF TIME STEP  78 IN STRESS PERIOD    3
  ---------------------------------------------------------------------------

            1           2           3           4           5           6           7           8           9          10
 ........................................................................................................................
   1    9.999       9.499       8.933       8.250       7.421       6.419       5.192       3.701       1.955      1.7138E-03
   2    9.999       9.468       8.863       8.134       7.272       6.299       5.116       3.661       1.938      1.6977E-03
   3    9.999       9.409       8.720       7.869       6.895       6.024       4.959       3.584       1.908      1.6687E-03
   4    9.999       9.336       8.520       7.413       6.027       5.549       4.740       3.490       1.874      1.6364E-03
   5    9.999       9.292       8.366       6.865       3.102       4.970       4.573       3.435       1.856      1.6198E-03
   6    9.999       9.337       8.522       7.416       6.031       5.553       4.743       3.492       1.874      1.6371E-03
   7    9.999       9.413       8.727       7.879       6.906       6.034       4.967       3.589       1.910      1.6711E-03
   8    9.999       9.477       8.880       8.158       7.299       6.323       5.134       3.672       1.944      1.7031E-03
   9    9.999       9.518       8.970       8.304       7.481       6.474       5.233       3.726       1.967      1.7249E-03
  10    9.999       9.536       9.010       8.365       7.554       6.537       5.276       3.751       1.978      1.7355E-03
1
              HEAD IN LAYER   2 AT END OF TIME STEP  78 IN STRESS PERIOD    3
  ---------------------------------------------------------------------------

            1           2           3           4           5           6           7           8           9          10
 ........................................................................................................................
   1    9.999       9.494       8.923       8.237       7.405       6.403       5.177       3.689       1.947      4.0726E-03
   2    9.999       9.463       8.853       8.120       7.256       6.282       5.101       3.649       1.931      4.0370E-03
   3    9.999       9.403       8.709       7.854       6.878       6.006       4.943       3.571       1.900      3.9721E-03
   4    9.999       9.329       8.507       7.396       6.009       5.531       4.724       3.477       1.865      3.8996E-03
   5    9.999       9.285       8.353       6.846       3.448       4.954       4.556       3.422       1.848      3.8629E-03
   6    9.999       9.331       8.510       7.399       6.013       5.534       4.727       3.479       1.866      3.9015E-03
   7    9.999       9.407       8.716       7.864       6.889       6.017       4.951       3.576       1.902      3.9773E-03
   8    9.999       9.472       8.870       8.144       7.283       6.307       5.119       3.661       1.936      4.0490E-03
   9    9.999       9.513       8.961       8.292       7.467       6.459       5.219       3.715       1.959      4.0979E-03
  10    9.999       9.532       9.002       8.353       7.540       6.523       5.263       3.740       1.971      4.1216E-03
1
              HEAD IN LAYER   3 AT END OF TIME STEP  78 IN STRESS PERIOD    3
  ---------------------------------------------------------------------------

            1           2           3           4           5           6           7           8           9          10
 ........................................................................................................................
   1    9.999       9.490       8.916       8.226       7.392       6.389       5.163       3.677       1.939      4.5678E-03
   2    9.999       9.459       8.845       8.109       7.242       6.268       5.086       3.636       1.922      4.5276E-03
   3    9.999       9.399       8.700       7.841       6.862       5.991       4.928       3.558       1.891      4.4545E-03
   4    9.999       9.324       8.497       7.382       5.998       5.514       4.708       3.464       1.856      4.3730E-03
   5    9.999       9.280       8.343       6.835       3.790       4.944       4.540       3.409       1.838      4.3318E-03
   6    9.999       9.326       8.500       7.385       6.002       5.518       4.711       3.466       1.857      4.3751E-03
   7    9.999       9.402       8.707       7.851       6.874       6.001       4.936       3.564       1.893      4.4605E-03
   8    9.999       9.468       8.863       8.133       7.270       6.293       5.105       3.648       1.927      4.5413E-03
   9    9.999       9.509       8.954       8.282       7.455       6.446       5.206       3.703       1.951      4.5967E-03
  10    9.999       9.529       8.995       8.344       7.529       6.510       5.250       3.729       1.962      4.6235E-03
1
              HEAD IN LAYER   4 AT END OF TIME STEP  78 IN STRESS PERIOD    3
  ---------------------------------------------------------------------------

            1           2           3           4           5           6           7           8           9          10
 ........................................................................................................................
   1    9.999       9.487       8.911       8.219       7.384       6.380       5.154       3.669       1.933      4.6193E-03
   2    9.999       9.456       8.840       8.101       7.233       6.258       5.077       3.628       1.916      4.5783E-03
   3    9.999       9.396       8.694       7.832       6.852       5.980       4.918       3.550       1.885      4.5039E-03
   4    9.999       9.321       8.491       7.372       5.993       5.503       4.698       3.455       1.850      4.4210E-03
   5    9.999       9.276       8.336       6.830       4.007       4.940       4.530       3.400       1.832      4.3792E-03
   6    9.999       9.322       8.494       7.376       5.997       5.507       4.701       3.457       1.851      4.4232E-03
   7    9.999       9.399       8.702       7.843       6.864       5.991       4.926       3.555       1.887      4.5101E-03
   8    9.999       9.465       8.858       8.126       7.261       6.283       5.096       3.640       1.922      4.5925E-03
   9    9.999       9.507       8.950       8.275       7.447       6.437       5.197       3.696       1.945      4.6491E-03
  10    9.999       9.526       8.991       8.338       7.521       6.502       5.242       3.722       1.957      4.6764E-03
1
              HEAD IN LAYER   5 AT END OF TIME STEP  78 IN STRESS PERIOD    3
  ---------------------------------------------------------------------------

            1           2           3           4           5           6           7           8           9          10
 ........................................................................................................................
   1    9.999       9.486       8.908       8.216       7.379       6.375       5.149       3.665       1.930      4.6205E-03
   2    9.999       9.455       8.837       8.097       7.228       6.253       5.072       3.624       1.913      4.5794E-03
   3    9.999       9.394       8.691       7.828       6.847       5.975       4.913       3.545       1.881      4.5047E-03
   4    9.999       9.319       8.488       7.368       5.991       5.498       4.692       3.451       1.847      4.4215E-03
   5    9.999       9.275       8.333       6.829       4.112       4.938       4.525       3.395       1.829      4.3795E-03
   6    9.999       9.321       8.490       7.372       5.996       5.502       4.695       3.453       1.848      4.4238E-03
   7    9.999       9.398       8.699       7.839       6.859       5.985       4.921       3.551       1.884      4.5109E-03
   8    9.999       9.464       8.855       8.122       7.257       6.278       5.092       3.636       1.919      4.5937E-03
   9    9.999       9.506       8.948       8.272       7.443       6.433       5.193       3.692       1.943      4.6506E-03
  10    9.999       9.525       8.989       8.335       7.518       6.498       5.237       3.718       1.954      4.6781E-03

 HEAD WILL BE SAVED ON UNIT   51 AT END OF TIME STEP   78, STRESS PERIOD    3

 DRAWDOWN WILL BE SAVED ON UNIT   52 AT END OF TIME STEP   78, STRESS PERIOD    3
1
  VOLUMETRIC BUDGET FOR ENTIRE MODEL AT END OF TIME STEP   78, STRESS PERIOD   3
  ------------------------------------------------------------------------------

     CUMULATIVE VOLUMES      L**3       RATES FOR THIS TIME STEP      L**3/T
     ------------------                 ------------------------

           IN:                                      IN:
           ---                                      ---
             STORAGE =      427781.7500               STORAGE =        1116.3091
       CONSTANT HEAD =           0.0000         CONSTANT HEAD =           0.0000
               WELLS =           0.0000                 WELLS =           0.0000
     HEAD DEP BOUNDS =       18878.3184       HEAD DEP BOUNDS =         345.5175

            TOTAL IN =      446660.0625              TOTAL IN =        1461.8267

          OUT:                                     OUT:
          ----                                     ----
             STORAGE =           0.0000               STORAGE =           0.0000
       CONSTANT HEAD =           0.0000         CONSTANT HEAD =           0.0000
               WELLS =       39000.0000                 WELLS =         500.0000
     HEAD DEP BOUNDS =      407660.8750       HEAD DEP BOUNDS =         961.8352

           TOTAL OUT =      446660.8750             TOTAL OUT =        1461.8352

            IN - OUT =          -0.8125              IN - OUT =      -8.5449E-03

 PERCENT DISCREPANCY =          -0.00     PERCENT DISCREPANCY =          -0.00






         TIME SUMMARY AT END OF TIME STEP   78 IN STRESS PERIOD    3
                    SECONDS     MINUTES      HOURS       DAYS        YEARS
                    -----------------------------------------------------------
   TIME STEP LENGTH  86400.      1440.0      24.000      1.0000     2.73785E-03
 STRESS PERIOD TIME 6.73920E+06 1.12320E+05  1872.0      78.000     0.21355    
         TOTAL TIME 1.54656E+07 2.57760E+05  4296.0      179.00     0.49008    
1
 
 SOLVING FOR HEAD 

 OUTPUT CONTROL FOR STRESS PERIOD    3   TIME STEP   79
    SAVE HEAD FOR ALL LAYERS
    SAVE DRAWDOWN FOR ALL LAYERS
    SAVE BUDGET
    PRINT HEAD FOR ALL LAYERS
    PRINT BUDGET
 UBDSV1 SAVING "         STORAGE" ON UNIT  53 AT TIME STEP 79, STRESS PERIOD   3
 UBDSV2 SAVING "   CONSTANT HEAD" ON UNIT  53 AT TIME STEP 79, STRESS PERIOD   3
 UBDSV1 SAVING "FLOW RIGHT FACE " ON UNIT  53 AT TIME STEP 79, STRESS PERIOD   3
 UBDSV1 SAVING "FLOW FRONT FACE " ON UNIT  53 AT TIME STEP 79, STRESS PERIOD   3
 UBDSV1 SAVING "FLOW LOWER FACE " ON UNIT  53 AT TIME STEP 79, STRESS PERIOD   3
1
              HEAD IN LAYER   1 AT END OF TIME STEP  79 IN STRESS PERIOD    3
  ---------------------------------------------------------------------------

            1           2           3           4           5           6           7           8           9          10
 ........................................................................................................................
   1    9.999       9.494       8.923       8.236       7.404       6.402       5.176       3.689       1.948      1.7072E-03
   2    9.999       9.463       8.853       8.119       7.255       6.281       5.099       3.648       1.931      1.6909E-03
   3    9.999       9.403       8.709       7.853       6.876       6.005       4.942       3.570       1.900      1.6616E-03
   4    9.999       9.329       8.507       7.395       6.006       5.528       4.722       3.476       1.866      1.6288E-03
   5    9.999       9.285       8.354       6.847       3.079       4.948       4.553       3.421       1.848      1.6122E-03
   6    9.999       9.331       8.510       7.399       6.010       5.532       4.724       3.478       1.867      1.6297E-03
   7    9.999       9.407       8.716       7.863       6.887       6.015       4.950       3.575       1.903      1.6639E-03
   8    9.999       9.472       8.870       8.144       7.282       6.306       5.118       3.660       1.937      1.6965E-03
   9    9.999       9.513       8.961       8.291       7.466       6.458       5.218       3.715       1.961      1.7189E-03
  10    9.999       9.532       9.001       8.353       7.539       6.522       5.262       3.740       1.972      1.7296E-03
1
              HEAD IN LAYER   2 AT END OF TIME STEP  79 IN STRESS PERIOD    3
  ---------------------------------------------------------------------------

            1           2           3           4           5           6           7           8           9          10
 ........................................................................................................................
   1    9.999       9.489       8.913       8.223       7.389       6.386       5.161       3.677       1.941      4.0581E-03
   2    9.999       9.457       8.843       8.105       7.239       6.264       5.084       3.636       1.923      4.0220E-03
   3    9.999       9.397       8.697       7.838       6.859       5.987       4.926       3.558       1.892      3.9563E-03
   4    9.999       9.323       8.495       7.378       5.988       5.510       4.705       3.463       1.857      3.8831E-03
   5    9.999       9.279       8.341       6.828       3.425       4.932       4.537       3.408       1.840      3.8461E-03
   6    9.999       9.324       8.498       7.382       5.992       5.514       4.708       3.465       1.858      3.8850E-03
   7    9.999       9.401       8.705       7.848       6.870       5.997       4.934       3.563       1.895      3.9617E-03
   8    9.999       9.467       8.860       8.130       7.266       6.290       5.104       3.648       1.929      4.0344E-03
   9    9.999       9.508       8.952       8.279       7.452       6.443       5.204       3.703       1.953      4.0843E-03
  10    9.999       9.528       8.993       8.341       7.526       6.508       5.249       3.729       1.964      4.1084E-03
1
              HEAD IN LAYER   3 AT END OF TIME STEP  79 IN STRESS PERIOD    3
  ---------------------------------------------------------------------------

            1           2           3           4           5           6           7           8           9          10
 ........................................................................................................................
   1    9.999       9.485       8.906       8.212       7.376       6.372       5.147       3.665       1.932      4.5517E-03
   2    9.999       9.453       8.835       8.094       7.225       6.250       5.070       3.623       1.915      4.5109E-03
   3    9.999       9.393       8.688       7.825       6.843       5.971       4.911       3.545       1.883      4.4369E-03
   4    9.999       9.318       8.485       7.364       5.978       5.493       4.690       3.450       1.848      4.3546E-03
   5    9.999       9.273       8.330       6.817       3.767       4.922       4.521       3.395       1.830      4.3131E-03
   6    9.999       9.319       8.488       7.368       5.982       5.497       4.693       3.452       1.849      4.3568E-03
   7    9.999       9.397       8.696       7.836       6.855       5.982       4.919       3.550       1.886      4.4432E-03
   8    9.999       9.463       8.853       8.119       7.253       6.275       5.090       3.636       1.921      4.5252E-03
   9    9.999       9.505       8.945       8.269       7.440       6.430       5.191       3.692       1.944      4.5816E-03
  10    9.999       9.524       8.987       8.332       7.515       6.495       5.236       3.718       1.956      4.6089E-03
1
              HEAD IN LAYER   4 AT END OF TIME STEP  79 IN STRESS PERIOD    3
  ---------------------------------------------------------------------------

            1           2           3           4           5           6           7           8           9          10
 ........................................................................................................................
   1    9.999       9.482       8.901       8.205       7.367       6.363       5.138       3.657       1.926      4.6030E-03
   2    9.999       9.450       8.829       8.086       7.216       6.240       5.060       3.615       1.909      4.5615E-03
   3    9.999       9.390       8.683       7.817       6.833       5.961       4.901       3.536       1.877      4.4862E-03
   4    9.999       9.315       8.479       7.355       5.973       5.483       4.679       3.441       1.842      4.4025E-03
   5    9.999       9.270       8.324       6.813       3.985       4.918       4.511       3.386       1.824      4.3603E-03
   6    9.999       9.316       8.481       7.359       5.977       5.487       4.682       3.443       1.843      4.4048E-03
   7    9.999       9.394       8.690       7.827       6.845       5.972       4.909       3.542       1.880      4.4926E-03
   8    9.999       9.460       8.848       8.112       7.244       6.266       5.080       3.628       1.915      4.5762E-03
   9    9.999       9.502       8.941       8.262       7.432       6.422       5.182       3.684       1.939      4.6337E-03
  10    9.999       9.522       8.982       8.326       7.507       6.487       5.228       3.711       1.951      4.6616E-03
1
              HEAD IN LAYER   5 AT END OF TIME STEP  79 IN STRESS PERIOD    3
  ---------------------------------------------------------------------------

            1           2           3           4           5           6           7           8           9          10
 ........................................................................................................................
   1    9.999       9.481       8.898       8.202       7.363       6.358       5.134       3.653       1.923      4.6043E-03
   2    9.999       9.449       8.826       8.083       7.211       6.235       5.056       3.611       1.906      4.5626E-03
   3    9.999       9.388       8.680       7.812       6.828       5.955       4.896       3.532       1.874      4.4870E-03
   4    9.999       9.313       8.475       7.351       5.971       5.477       4.674       3.437       1.839      4.4030E-03
   5    9.999       9.268       8.320       6.811       4.090       4.917       4.506       3.381       1.821      4.3607E-03
   6    9.999       9.315       8.478       7.355       5.975       5.481       4.677       3.439       1.840      4.4053E-03
   7    9.999       9.392       8.688       7.823       6.840       5.966       4.904       3.538       1.877      4.4935E-03
   8    9.999       9.459       8.845       8.108       7.240       6.261       5.076       3.624       1.912      4.5774E-03
   9    9.999       9.501       8.938       8.259       7.428       6.417       5.178       3.680       1.936      4.6353E-03
  10    9.999       9.521       8.980       8.323       7.503       6.483       5.224       3.707       1.948      4.6633E-03

 HEAD WILL BE SAVED ON UNIT   51 AT END OF TIME STEP   79, STRESS PERIOD    3

 DRAWDOWN WILL BE SAVED ON UNIT   52 AT END OF TIME STEP   79, STRESS PERIOD    3
1
  VOLUMETRIC BUDGET FOR ENTIRE MODEL AT END OF TIME STEP   79, STRESS PERIOD   3
  ------------------------------------------------------------------------------

     CUMULATIVE VOLUMES      L**3       RATES FOR THIS TIME STEP      L**3/T
     ------------------                 ------------------------

           IN:                                      IN:
           ---                                      ---
             STORAGE =      428891.0938               STORAGE =        1109.3540
       CONSTANT HEAD =           0.0000         CONSTANT HEAD =           0.0000
               WELLS =           0.0000                 WELLS =           0.0000
     HEAD DEP BOUNDS =       19227.1406       HEAD DEP BOUNDS =         348.8215

            TOTAL IN =      448118.2500              TOTAL IN =        1458.1755

          OUT:                                     OUT:
          ----                                     ----
             STORAGE =           0.0000               STORAGE =           0.0000
       CONSTANT HEAD =           0.0000         CONSTANT HEAD =           0.0000
               WELLS =       39500.0000                 WELLS =         500.0000
     HEAD DEP BOUNDS =      408619.0625       HEAD DEP BOUNDS =         958.1842

           TOTAL OUT =      448119.0625             TOTAL OUT =        1458.1842

            IN - OUT =          -0.8125              IN - OUT =      -8.6670E-03

 PERCENT DISCREPANCY =          -0.00     PERCENT DISCREPANCY =          -0.00






         TIME SUMMARY AT END OF TIME STEP   79 IN STRESS PERIOD    3
                    SECONDS     MINUTES      HOURS       DAYS        YEARS
                    -----------------------------------------------------------
   TIME STEP LENGTH  86400.      1440.0      24.000      1.0000     2.73785E-03
 STRESS PERIOD TIME 6.82560E+06 1.13760E+05  1896.0      79.000     0.21629    
         TOTAL TIME 1.55520E+07 2.59200E+05  4320.0      180.00     0.49281    
1
 
 SOLVING FOR HEAD 

 OUTPUT CONTROL FOR STRESS PERIOD    3   TIME STEP   80
    SAVE HEAD FOR ALL LAYERS
    SAVE DRAWDOWN FOR ALL LAYERS
    SAVE BUDGET
    PRINT HEAD FOR ALL LAYERS
    PRINT BUDGET
 UBDSV1 SAVING "         STORAGE" ON UNIT  53 AT TIME STEP 80, STRESS PERIOD   3
 UBDSV2 SAVING "   CONSTANT HEAD" ON UNIT  53 AT TIME STEP 80, STRESS PERIOD   3
 UBDSV1 SAVING "FLOW RIGHT FACE " ON UNIT  53 AT TIME STEP 80, STRESS PERIOD   3
 UBDSV1 SAVING "FLOW FRONT FACE " ON UNIT  53 AT TIME STEP 80, STRESS PERIOD   3
 UBDSV1 SAVING "FLOW LOWER FACE " ON UNIT  53 AT TIME STEP 80, STRESS PERIOD   3
1
              HEAD IN LAYER   1 AT END OF TIME STEP  80 IN STRESS PERIOD    3
  ---------------------------------------------------------------------------

            1           2           3           4           5           6           7           8           9          10
 ........................................................................................................................
   1    9.999       9.489       8.913       8.222       7.388       6.385       5.160       3.676       1.941      1.7007E-03
   2    9.999       9.457       8.842       8.105       7.238       6.263       5.083       3.635       1.924      1.6842E-03
   3    9.999       9.397       8.697       7.837       6.857       5.985       4.924       3.557       1.893      1.6544E-03
   4    9.999       9.323       8.495       7.378       5.986       5.507       4.703       3.462       1.858      1.6214E-03
   5    9.999       9.279       8.341       6.829       3.057       4.926       4.534       3.406       1.840      1.6047E-03
   6    9.999       9.325       8.498       7.382       5.990       5.511       4.706       3.464       1.859      1.6223E-03
   7    9.999       9.401       8.705       7.847       6.869       5.996       4.932       3.562       1.895      1.6570E-03
   8    9.999       9.467       8.860       8.129       7.265       6.288       5.102       3.648       1.930      1.6899E-03
   9    9.999       9.508       8.952       8.278       7.451       6.442       5.203       3.703       1.954      1.7127E-03
  10    9.999       9.527       8.993       8.341       7.525       6.507       5.248       3.729       1.966      1.7236E-03
1
              HEAD IN LAYER   2 AT END OF TIME STEP  80 IN STRESS PERIOD    3
  ---------------------------------------------------------------------------

            1           2           3           4           5           6           7           8           9          10
 ........................................................................................................................
   1    9.999       9.483       8.903       8.209       7.372       6.369       5.146       3.665       1.934      4.0437E-03
   2    9.999       9.452       8.832       8.091       7.221       6.246       5.068       3.623       1.916      4.0071E-03
   3    9.999       9.391       8.686       7.822       6.840       5.968       4.908       3.544       1.885      3.9406E-03
   4    9.999       9.317       8.483       7.361       5.968       5.489       4.687       3.449       1.850      3.8666E-03
   5    9.999       9.272       8.328       6.810       3.403       4.910       4.518       3.393       1.832      3.8294E-03
   6    9.999       9.318       8.485       7.365       5.972       5.493       4.690       3.451       1.851      3.8687E-03
   7    9.999       9.395       8.694       7.832       6.852       5.978       4.917       3.550       1.887      3.9463E-03
   8    9.999       9.461       8.850       8.116       7.250       6.272       5.088       3.636       1.922      4.0200E-03
   9    9.999       9.504       8.943       8.266       7.437       6.428       5.189       3.692       1.946      4.0707E-03
  10    9.999       9.523       8.985       8.329       7.512       6.493       5.235       3.718       1.958      4.0953E-03
1
              HEAD IN LAYER   3 AT END OF TIME STEP  80 IN STRESS PERIOD    3
  ---------------------------------------------------------------------------

            1           2           3           4           5           6           7           8           9          10
 ........................................................................................................................
   1    9.999       9.480       8.896       8.199       7.359       6.355       5.132       3.653       1.925      4.5357E-03
   2    9.999       9.448       8.824       8.079       7.208       6.232       5.053       3.611       1.907      4.4944E-03
   3    9.999       9.387       8.677       7.809       6.825       5.952       4.893       3.531       1.876      4.4195E-03
   4    9.999       9.312       8.473       7.347       5.957       5.473       4.671       3.436       1.840      4.3363E-03
   5    9.999       9.267       8.318       6.800       3.745       4.901       4.503       3.380       1.823      4.2945E-03
   6    9.999       9.313       8.476       7.351       5.962       5.477       4.674       3.438       1.841      4.3387E-03
   7    9.999       9.391       8.685       7.820       6.837       5.963       4.902       3.537       1.878      4.4260E-03
   8    9.999       9.457       8.843       8.105       7.237       6.258       5.074       3.624       1.914      4.5091E-03
   9    9.999       9.500       8.936       8.256       7.425       6.414       5.176       3.681       1.938      4.5665E-03
  10    9.999       9.520       8.978       8.320       7.500       6.480       5.222       3.707       1.950      4.5943E-03
1
              HEAD IN LAYER   4 AT END OF TIME STEP  80 IN STRESS PERIOD    3
  ---------------------------------------------------------------------------

            1           2           3           4           5           6           7           8           9          10
 ........................................................................................................................
   1    9.999       9.477       8.891       8.191       7.351       6.346       5.123       3.645       1.919      4.5869E-03
   2    9.999       9.445       8.819       8.072       7.198       6.222       5.044       3.603       1.902      4.5448E-03
   3    9.999       9.384       8.671       7.801       6.815       5.941       4.883       3.523       1.870      4.4686E-03
   4    9.999       9.308       8.466       7.338       5.953       5.462       4.661       3.427       1.834      4.3841E-03
   5    9.999       9.264       8.311       6.795       3.963       4.897       4.492       3.371       1.816      4.3416E-03
   6    9.999       9.310       8.469       7.342       5.957       5.466       4.664       3.429       1.835      4.3865E-03
   7    9.999       9.388       8.679       7.812       6.827       5.953       4.892       3.529       1.873      4.4753E-03
   8    9.999       9.455       8.838       8.098       7.228       6.249       5.065       3.616       1.908      4.5600E-03
   9    9.999       9.498       8.932       8.250       7.417       6.406       5.168       3.673       1.933      4.6185E-03
  10    9.999       9.518       8.974       8.314       7.493       6.472       5.214       3.700       1.944      4.6470E-03
1
              HEAD IN LAYER   5 AT END OF TIME STEP  80 IN STRESS PERIOD    3
  ---------------------------------------------------------------------------

            1           2           3           4           5           6           7           8           9          10
 ........................................................................................................................
   1    9.999       9.476       8.888       8.188       7.346       6.341       5.118       3.641       1.916      4.5881E-03
   2    9.999       9.444       8.816       8.068       7.194       6.217       5.039       3.599       1.899      4.5459E-03
   3    9.999       9.382       8.668       7.797       6.810       5.936       4.878       3.519       1.867      4.4694E-03
   4    9.999       9.307       8.463       7.334       5.951       5.457       4.656       3.423       1.831      4.3846E-03
   5    9.999       9.262       8.308       6.793       4.069       4.896       4.487       3.367       1.813      4.3420E-03
   6    9.999       9.308       8.466       7.338       5.955       5.461       4.659       3.425       1.832      4.3871E-03
   7    9.999       9.386       8.676       7.808       6.822       5.948       4.887       3.525       1.870      4.4762E-03
   8    9.999       9.453       8.835       8.094       7.224       6.244       5.060       3.612       1.905      4.5612E-03
   9    9.999       9.496       8.929       8.247       7.413       6.401       5.163       3.669       1.930      4.6200E-03
  10    9.999       9.516       8.972       8.311       7.489       6.468       5.210       3.696       1.942      4.6486E-03

 HEAD WILL BE SAVED ON UNIT   51 AT END OF TIME STEP   80, STRESS PERIOD    3

 DRAWDOWN WILL BE SAVED ON UNIT   52 AT END OF TIME STEP   80, STRESS PERIOD    3
1
  VOLUMETRIC BUDGET FOR ENTIRE MODEL AT END OF TIME STEP   80, STRESS PERIOD   3
  ------------------------------------------------------------------------------

     CUMULATIVE VOLUMES      L**3       RATES FOR THIS TIME STEP      L**3/T
     ------------------                 ------------------------

           IN:                                      IN:
           ---                                      ---
             STORAGE =      429993.5312               STORAGE =        1102.4351
       CONSTANT HEAD =           0.0000         CONSTANT HEAD =           0.0000
               WELLS =           0.0000                 WELLS =           0.0000
     HEAD DEP BOUNDS =       19579.2363       HEAD DEP BOUNDS =         352.0956

            TOTAL IN =      449572.7812              TOTAL IN =        1454.5306

          OUT:                                     OUT:
          ----                                     ----
             STORAGE =           0.0000               STORAGE =           0.0000
       CONSTANT HEAD =           0.0000         CONSTANT HEAD =           0.0000
               WELLS =       40000.0000                 WELLS =         500.0000
     HEAD DEP BOUNDS =      409573.6250       HEAD DEP BOUNDS =         954.5536

           TOTAL OUT =      449573.6250             TOTAL OUT =        1454.5536

            IN - OUT =          -0.8438              IN - OUT =      -2.2949E-02

 PERCENT DISCREPANCY =          -0.00     PERCENT DISCREPANCY =          -0.00






         TIME SUMMARY AT END OF TIME STEP   80 IN STRESS PERIOD    3
                    SECONDS     MINUTES      HOURS       DAYS        YEARS
                    -----------------------------------------------------------
   TIME STEP LENGTH  86400.      1440.0      24.000      1.0000     2.73785E-03
 STRESS PERIOD TIME 6.91200E+06 1.15200E+05  1920.0      80.000     0.21903    
         TOTAL TIME 1.56384E+07 2.60640E+05  4344.0      181.00     0.49555    
1
 
 SOLVING FOR HEAD 

 OUTPUT CONTROL FOR STRESS PERIOD    3   TIME STEP   81
    SAVE HEAD FOR ALL LAYERS
    SAVE DRAWDOWN FOR ALL LAYERS
    SAVE BUDGET
    PRINT HEAD FOR ALL LAYERS
    PRINT BUDGET
 UBDSV1 SAVING "         STORAGE" ON UNIT  53 AT TIME STEP 81, STRESS PERIOD   3
 UBDSV2 SAVING "   CONSTANT HEAD" ON UNIT  53 AT TIME STEP 81, STRESS PERIOD   3
 UBDSV1 SAVING "FLOW RIGHT FACE " ON UNIT  53 AT TIME STEP 81, STRESS PERIOD   3
 UBDSV1 SAVING "FLOW FRONT FACE " ON UNIT  53 AT TIME STEP 81, STRESS PERIOD   3
 UBDSV1 SAVING "FLOW LOWER FACE " ON UNIT  53 AT TIME STEP 81, STRESS PERIOD   3
1
              HEAD IN LAYER   1 AT END OF TIME STEP  81 IN STRESS PERIOD    3
  ---------------------------------------------------------------------------

            1           2           3           4           5           6           7           8           9          10
 ........................................................................................................................
   1    9.999       9.483       8.903       8.209       7.371       6.368       5.145       3.664       1.935      1.6941E-03
   2    9.999       9.452       8.832       8.090       7.220       6.245       5.066       3.623       1.917      1.6776E-03
   3    9.999       9.391       8.686       7.821       6.839       5.966       4.906       3.543       1.885      1.6474E-03
   4    9.999       9.317       8.483       7.361       5.966       5.486       4.684       3.448       1.850      1.6140E-03
   5    9.999       9.272       8.329       6.811       3.034       4.905       4.515       3.392       1.832      1.5973E-03
   6    9.999       9.318       8.485       7.365       5.970       5.490       4.687       3.450       1.851      1.6149E-03
   7    9.999       9.395       8.693       7.832       6.850       5.977       4.915       3.549       1.888      1.6499E-03
   8    9.999       9.461       8.850       8.115       7.249       6.271       5.087       3.636       1.923      1.6834E-03
   9    9.999       9.504       8.943       8.266       7.436       6.427       5.188       3.692       1.948      1.7066E-03
  10    9.999       9.523       8.984       8.329       7.511       6.492       5.234       3.718       1.959      1.7177E-03
1
              HEAD IN LAYER   2 AT END OF TIME STEP  81 IN STRESS PERIOD    3
  ---------------------------------------------------------------------------

            1           2           3           4           5           6           7           8           9          10
 ........................................................................................................................
   1    9.999       9.478       8.893       8.195       7.356       6.352       5.130       3.653       1.927      4.0294E-03
   2    9.999       9.447       8.822       8.076       7.204       6.228       5.051       3.611       1.909      3.9923E-03
   3    9.999       9.385       8.675       7.806       6.821       5.948       4.891       3.531       1.877      3.9250E-03
   4    9.999       9.310       8.471       7.344       5.948       5.469       4.668       3.435       1.842      3.8503E-03
   5    9.999       9.266       8.316       6.793       3.381       4.889       4.499       3.379       1.824      3.8128E-03
   6    9.999       9.312       8.473       7.348       5.952       5.473       4.671       3.437       1.843      3.8525E-03
   7    9.999       9.390       8.683       7.817       6.833       5.960       4.900       3.537       1.880      3.9309E-03
   8    9.999       9.456       8.840       8.102       7.233       6.255       5.072       3.624       1.916      4.0056E-03
   9    9.999       9.499       8.934       8.253       7.422       6.412       5.175       3.681       1.940      4.0572E-03
  10    9.999       9.519       8.976       8.317       7.497       6.478       5.221       3.707       1.952      4.0823E-03
1
              HEAD IN LAYER   3 AT END OF TIME STEP  81 IN STRESS PERIOD    3
  ---------------------------------------------------------------------------

            1           2           3           4           5           6           7           8           9          10
 ........................................................................................................................
   1    9.999       9.474       8.886       8.185       7.343       6.338       5.116       3.641       1.918      4.5197E-03
   2    9.999       9.442       8.814       8.065       7.190       6.214       5.037       3.598       1.901      4.4779E-03
   3    9.999       9.381       8.666       7.793       6.806       5.933       4.876       3.518       1.868      4.4022E-03
   4    9.999       9.305       8.461       7.330       5.937       5.452       4.653       3.422       1.833      4.3182E-03
   5    9.999       9.261       8.306       6.782       3.723       4.880       4.484       3.366       1.815      4.2761E-03
   6    9.999       9.307       8.464       7.334       5.942       5.457       4.656       3.424       1.834      4.3207E-03
   7    9.999       9.385       8.674       7.805       6.819       5.944       4.885       3.524       1.871      4.4089E-03
   8    9.999       9.452       8.833       8.091       7.220       6.241       5.058       3.612       1.907      4.4932E-03
   9    9.999       9.495       8.927       8.244       7.410       6.399       5.162       3.669       1.932      4.5515E-03
  10    9.999       9.515       8.970       8.308       7.486       6.465       5.208       3.696       1.944      4.5798E-03
1
              HEAD IN LAYER   4 AT END OF TIME STEP  81 IN STRESS PERIOD    3
  ---------------------------------------------------------------------------

            1           2           3           4           5           6           7           8           9          10
 ........................................................................................................................
   1    9.999       9.472       8.881       8.178       7.334       6.329       5.107       3.633       1.913      4.5708E-03
   2    9.999       9.440       8.808       8.057       7.181       6.204       5.028       3.590       1.895      4.5282E-03
   3    9.999       9.378       8.660       7.785       6.796       5.922       4.866       3.510       1.862      4.4511E-03
   4    9.999       9.302       8.454       7.321       5.932       5.442       4.642       3.413       1.827      4.3658E-03
   5    9.999       9.257       8.299       6.778       3.941       4.876       4.474       3.357       1.809      4.3231E-03
   6    9.999       9.304       8.457       7.325       5.937       5.446       4.646       3.415       1.828      4.3684E-03
   7    9.999       9.382       8.668       7.796       6.809       5.934       4.875       3.516       1.865      4.4581E-03
   8    9.999       9.450       8.828       8.084       7.212       6.232       5.049       3.604       1.901      4.5439E-03
   9    9.999       9.493       8.923       8.237       7.402       6.390       5.153       3.662       1.926      4.6034E-03
  10    9.999       9.513       8.965       8.302       7.479       6.457       5.200       3.689       1.938      4.6324E-03
1
              HEAD IN LAYER   5 AT END OF TIME STEP  81 IN STRESS PERIOD    3
  ---------------------------------------------------------------------------

            1           2           3           4           5           6           7           8           9          10
 ........................................................................................................................
   1    9.999       9.470       8.878       8.174       7.330       6.324       5.103       3.629       1.910      4.5721E-03
   2    9.999       9.438       8.806       8.053       7.177       6.199       5.023       3.586       1.892      4.5293E-03
   3    9.999       9.376       8.657       7.781       6.791       5.917       4.861       3.506       1.859      4.4519E-03
   4    9.999       9.301       8.451       7.317       5.931       5.436       4.637       3.409       1.824      4.3664E-03
   5    9.999       9.255       8.295       6.776       4.047       4.875       4.469       3.353       1.806      4.3235E-03
   6    9.999       9.302       8.454       7.321       5.935       5.441       4.641       3.411       1.825      4.3689E-03
   7    9.999       9.381       8.666       7.792       6.804       5.929       4.870       3.512       1.862      4.4590E-03
   8    9.999       9.448       8.825       8.081       7.207       6.227       5.045       3.600       1.898      4.5452E-03
   9    9.999       9.492       8.920       8.234       7.398       6.386       5.149       3.658       1.923      4.6049E-03
  10    9.999       9.512       8.963       8.299       7.475       6.453       5.196       3.685       1.936      4.6341E-03

 HEAD WILL BE SAVED ON UNIT   51 AT END OF TIME STEP   81, STRESS PERIOD    3

 DRAWDOWN WILL BE SAVED ON UNIT   52 AT END OF TIME STEP   81, STRESS PERIOD    3
1
  VOLUMETRIC BUDGET FOR ENTIRE MODEL AT END OF TIME STEP   81, STRESS PERIOD   3
  ------------------------------------------------------------------------------

     CUMULATIVE VOLUMES      L**3       RATES FOR THIS TIME STEP      L**3/T
     ------------------                 ------------------------

           IN:                                      IN:
           ---                                      ---
             STORAGE =      431089.0938               STORAGE =        1095.5568
       CONSTANT HEAD =           0.0000         CONSTANT HEAD =           0.0000
               WELLS =           0.0000                 WELLS =           0.0000
     HEAD DEP BOUNDS =       19934.6035       HEAD DEP BOUNDS =         355.3681

            TOTAL IN =      451023.6875              TOTAL IN =        1450.9249

          OUT:                                     OUT:
          ----                                     ----
             STORAGE =           0.0000               STORAGE =           0.0000
       CONSTANT HEAD =           0.0000         CONSTANT HEAD =           0.0000
               WELLS =       40500.0000                 WELLS =         500.0000
     HEAD DEP BOUNDS =      410524.5625       HEAD DEP BOUNDS =         950.9484

           TOTAL OUT =      451024.5625             TOTAL OUT =        1450.9485

            IN - OUT =          -0.8750              IN - OUT =      -2.3560E-02

 PERCENT DISCREPANCY =          -0.00     PERCENT DISCREPANCY =          -0.00






         TIME SUMMARY AT END OF TIME STEP   81 IN STRESS PERIOD    3
                    SECONDS     MINUTES      HOURS       DAYS        YEARS
                    -----------------------------------------------------------
   TIME STEP LENGTH  86400.      1440.0      24.000      1.0000     2.73785E-03
 STRESS PERIOD TIME 6.99840E+06 1.16640E+05  1944.0      81.000     0.22177    
         TOTAL TIME 1.57248E+07 2.62080E+05  4368.0      182.00     0.49829    
1
 
 SOLVING FOR HEAD 

 OUTPUT CONTROL FOR STRESS PERIOD    3   TIME STEP   82
    SAVE HEAD FOR ALL LAYERS
    SAVE DRAWDOWN FOR ALL LAYERS
    SAVE BUDGET
    PRINT HEAD FOR ALL LAYERS
    PRINT BUDGET
 UBDSV1 SAVING "         STORAGE" ON UNIT  53 AT TIME STEP 82, STRESS PERIOD   3
 UBDSV2 SAVING "   CONSTANT HEAD" ON UNIT  53 AT TIME STEP 82, STRESS PERIOD   3
 UBDSV1 SAVING "FLOW RIGHT FACE " ON UNIT  53 AT TIME STEP 82, STRESS PERIOD   3
 UBDSV1 SAVING "FLOW FRONT FACE " ON UNIT  53 AT TIME STEP 82, STRESS PERIOD   3
 UBDSV1 SAVING "FLOW LOWER FACE " ON UNIT  53 AT TIME STEP 82, STRESS PERIOD   3
1
              HEAD IN LAYER   1 AT END OF TIME STEP  82 IN STRESS PERIOD    3
  ---------------------------------------------------------------------------

            1           2           3           4           5           6           7           8           9          10
 ........................................................................................................................
   1    9.999       9.478       8.893       8.195       7.355       6.351       5.129       3.652       1.928      1.6876E-03
   2    9.999       9.447       8.821       8.075       7.203       6.227       5.050       3.610       1.910      1.6709E-03
   3    9.999       9.386       8.674       7.805       6.820       5.946       4.889       3.530       1.878      1.6404E-03
   4    9.999       9.311       8.470       7.344       5.945       5.466       4.666       3.434       1.842      1.6066E-03
   5    9.999       9.266       8.316       6.794       3.013       4.883       4.496       3.378       1.824      1.5898E-03
   6    9.999       9.312       8.473       7.348       5.950       5.470       4.669       3.436       1.843      1.6076E-03
   7    9.999       9.390       8.682       7.816       6.832       5.958       4.898       3.536       1.881      1.6430E-03
   8    9.999       9.456       8.840       8.102       7.232       6.254       5.071       3.623       1.916      1.6770E-03
   9    9.999       9.499       8.934       8.253       7.421       6.411       5.174       3.680       1.941      1.7004E-03
  10    9.999       9.519       8.976       8.317       7.497       6.477       5.220       3.707       1.953      1.7119E-03
1
              HEAD IN LAYER   2 AT END OF TIME STEP  82 IN STRESS PERIOD    3
  ---------------------------------------------------------------------------

            1           2           3           4           5           6           7           8           9          10
 ........................................................................................................................
   1    9.999       9.473       8.883       8.182       7.340       6.335       5.114       3.640       1.920      4.0152E-03
   2    9.999       9.441       8.811       8.061       7.187       6.211       5.035       3.598       1.902      3.9776E-03
   3    9.999       9.380       8.663       7.790       6.802       5.929       4.874       3.518       1.870      3.9095E-03
   4    9.999       9.304       8.458       7.327       5.928       5.448       4.650       3.421       1.834      3.8341E-03
   5    9.999       9.259       8.303       6.775       3.359       4.868       4.480       3.365       1.816      3.7963E-03
   6    9.999       9.306       8.461       7.331       5.932       5.452       4.653       3.423       1.835      3.8363E-03
   7    9.999       9.384       8.672       7.801       6.815       5.941       4.883       3.524       1.873      3.9156E-03
   8    9.999       9.451       8.830       8.088       7.217       6.238       5.056       3.612       1.909      3.9914E-03
   9    9.999       9.494       8.925       8.241       7.407       6.396       5.160       3.669       1.934      4.0438E-03
  10    9.999       9.514       8.967       8.305       7.483       6.463       5.207       3.696       1.946      4.0693E-03
1
              HEAD IN LAYER   3 AT END OF TIME STEP  82 IN STRESS PERIOD    3
  ---------------------------------------------------------------------------

            1           2           3           4           5           6           7           8           9          10
 ........................................................................................................................
   1    9.999       9.469       8.876       8.171       7.327       6.321       5.101       3.629       1.912      4.5039E-03
   2    9.999       9.437       8.803       8.050       7.173       6.196       5.021       3.586       1.894      4.4615E-03
   3    9.999       9.375       8.655       7.778       6.788       5.914       4.859       3.505       1.861      4.3849E-03
   4    9.999       9.299       8.449       7.314       5.917       5.432       4.635       3.408       1.825      4.3002E-03
   5    9.999       9.254       8.293       6.765       3.702       4.859       4.465       3.352       1.807      4.2578E-03
   6    9.999       9.301       8.452       7.318       5.922       5.436       4.638       3.410       1.826      4.3028E-03
   7    9.999       9.380       8.663       7.789       6.801       5.926       4.868       3.511       1.864      4.3919E-03
   8    9.999       9.447       8.823       8.078       7.204       6.224       5.043       3.600       1.900      4.4773E-03
   9    9.999       9.491       8.918       8.231       7.395       6.383       5.147       3.658       1.925      4.5365E-03
  10    9.999       9.511       8.961       8.296       7.472       6.450       5.194       3.685       1.938      4.5654E-03
1
              HEAD IN LAYER   4 AT END OF TIME STEP  82 IN STRESS PERIOD    3
  ---------------------------------------------------------------------------

            1           2           3           4           5           6           7           8           9          10
 ........................................................................................................................
   1    9.999       9.467       8.871       8.164       7.318       6.312       5.092       3.621       1.906      4.5548E-03
   2    9.999       9.434       8.798       8.043       7.164       6.186       5.012       3.578       1.888      4.5117E-03
   3    9.999       9.372       8.649       7.769       6.778       5.903       4.849       3.497       1.855      4.4338E-03
   4    9.999       9.296       8.442       7.305       5.913       5.422       4.624       3.399       1.819      4.3477E-03
   5    9.999       9.251       8.287       6.760       3.920       4.855       4.455       3.343       1.801      4.3046E-03
   6    9.999       9.298       8.446       7.309       5.917       5.426       4.628       3.402       1.820      4.3503E-03
   7    9.999       9.377       8.657       7.781       6.791       5.915       4.858       3.503       1.858      4.4410E-03
   8    9.999       9.444       8.818       8.070       7.195       6.215       5.034       3.592       1.895      4.5279E-03
   9    9.999       9.488       8.914       8.225       7.387       6.375       5.139       3.650       1.920      4.5883E-03
  10    9.999       9.509       8.957       8.290       7.464       6.442       5.186       3.678       1.932      4.6178E-03
1
              HEAD IN LAYER   5 AT END OF TIME STEP  82 IN STRESS PERIOD    3
  ---------------------------------------------------------------------------

            1           2           3           4           5           6           7           8           9          10
 ........................................................................................................................
   1    9.999       9.465       8.868       8.160       7.314       6.307       5.087       3.617       1.903      4.5561E-03
   2    9.999       9.433       8.795       8.039       7.160       6.182       5.007       3.574       1.885      4.5128E-03
   3    9.999       9.371       8.646       7.765       6.773       5.898       4.844       3.492       1.852      4.4346E-03
   4    9.999       9.294       8.439       7.300       5.911       5.416       4.619       3.395       1.816      4.3482E-03
   5    9.999       9.249       8.283       6.759       4.026       4.854       4.450       3.339       1.798      4.3051E-03
   6    9.999       9.296       8.442       7.304       5.916       5.421       4.623       3.397       1.817      4.3509E-03
   7    9.999       9.375       8.655       7.777       6.786       5.910       4.854       3.499       1.855      4.4419E-03
   8    9.999       9.443       8.815       8.067       7.191       6.210       5.029       3.588       1.892      4.5292E-03
   9    9.999       9.487       8.911       8.221       7.383       6.370       5.135       3.647       1.917      4.5899E-03
  10    9.999       9.508       8.955       8.287       7.461       6.438       5.182       3.674       1.930      4.6195E-03

 HEAD WILL BE SAVED ON UNIT   51 AT END OF TIME STEP   82, STRESS PERIOD    3

 DRAWDOWN WILL BE SAVED ON UNIT   52 AT END OF TIME STEP   82, STRESS PERIOD    3
1
  VOLUMETRIC BUDGET FOR ENTIRE MODEL AT END OF TIME STEP   82, STRESS PERIOD   3
  ------------------------------------------------------------------------------

     CUMULATIVE VOLUMES      L**3       RATES FOR THIS TIME STEP      L**3/T
     ------------------                 ------------------------

           IN:                                      IN:
           ---                                      ---
             STORAGE =      432177.8125               STORAGE =        1088.7102
       CONSTANT HEAD =           0.0000         CONSTANT HEAD =           0.0000
               WELLS =           0.0000                 WELLS =           0.0000
     HEAD DEP BOUNDS =       20293.2441       HEAD DEP BOUNDS =         358.6405

            TOTAL IN =      452471.0625              TOTAL IN =        1447.3507

          OUT:                                     OUT:
          ----                                     ----
             STORAGE =           0.0000               STORAGE =           0.0000
       CONSTANT HEAD =           0.0000         CONSTANT HEAD =           0.0000
               WELLS =       41000.0000                 WELLS =         500.0000
     HEAD DEP BOUNDS =      411471.9375       HEAD DEP BOUNDS =         947.3649

           TOTAL OUT =      452471.9375             TOTAL OUT =        1447.3649

            IN - OUT =          -0.8750              IN - OUT =      -1.4160E-02

 PERCENT DISCREPANCY =          -0.00     PERCENT DISCREPANCY =          -0.00






         TIME SUMMARY AT END OF TIME STEP   82 IN STRESS PERIOD    3
                    SECONDS     MINUTES      HOURS       DAYS        YEARS
                    -----------------------------------------------------------
   TIME STEP LENGTH  86400.      1440.0      24.000      1.0000     2.73785E-03
 STRESS PERIOD TIME 7.08480E+06 1.18080E+05  1968.0      82.000     0.22450    
         TOTAL TIME 1.58112E+07 2.63520E+05  4392.0      183.00     0.50103    
1
 
 SOLVING FOR HEAD 

 OUTPUT CONTROL FOR STRESS PERIOD    3   TIME STEP   83
    SAVE HEAD FOR ALL LAYERS
    SAVE DRAWDOWN FOR ALL LAYERS
    SAVE BUDGET
    PRINT HEAD FOR ALL LAYERS
    PRINT BUDGET
 UBDSV1 SAVING "         STORAGE" ON UNIT  53 AT TIME STEP 83, STRESS PERIOD   3
 UBDSV2 SAVING "   CONSTANT HEAD" ON UNIT  53 AT TIME STEP 83, STRESS PERIOD   3
 UBDSV1 SAVING "FLOW RIGHT FACE " ON UNIT  53 AT TIME STEP 83, STRESS PERIOD   3
 UBDSV1 SAVING "FLOW FRONT FACE " ON UNIT  53 AT TIME STEP 83, STRESS PERIOD   3
 UBDSV1 SAVING "FLOW LOWER FACE " ON UNIT  53 AT TIME STEP 83, STRESS PERIOD   3
1
              HEAD IN LAYER   1 AT END OF TIME STEP  83 IN STRESS PERIOD    3
  ---------------------------------------------------------------------------

            1           2           3           4           5           6           7           8           9          10
 ........................................................................................................................
   1    9.999       9.473       8.883       8.181       7.339       6.334       5.113       3.640       1.921      1.6814E-03
   2    9.999       9.441       8.811       8.061       7.186       6.209       5.034       3.597       1.903      1.6643E-03
   3    9.999       9.380       8.663       7.789       6.801       5.927       4.872       3.517       1.871      1.6335E-03
   4    9.999       9.304       8.458       7.327       5.925       5.445       4.648       3.420       1.834      1.5995E-03
   5    9.999       9.260       8.304       6.776       2.991       4.862       4.478       3.363       1.816      1.5824E-03
   6    9.999       9.306       8.461       7.331       5.930       5.450       4.651       3.422       1.836      1.6004E-03
   7    9.999       9.384       8.671       7.801       6.814       5.939       4.881       3.523       1.873      1.6363E-03
   8    9.999       9.451       8.830       8.088       7.216       6.237       5.055       3.611       1.910      1.6706E-03
   9    9.999       9.494       8.925       8.240       7.406       6.395       5.159       3.669       1.935      1.6944E-03
  10    9.999       9.514       8.967       8.305       7.482       6.462       5.206       3.696       1.947      1.7060E-03
1
              HEAD IN LAYER   2 AT END OF TIME STEP  83 IN STRESS PERIOD    3
  ---------------------------------------------------------------------------

            1           2           3           4           5           6           7           8           9          10
 ........................................................................................................................
   1    9.999       9.468       8.873       8.168       7.323       6.318       5.099       3.628       1.913      4.0010E-03
   2    9.999       9.436       8.801       8.047       7.170       6.193       5.019       3.586       1.895      3.9629E-03
   3    9.999       9.374       8.652       7.774       6.784       5.910       4.856       3.505       1.863      3.8941E-03
   4    9.999       9.298       8.447       7.311       5.908       5.428       4.632       3.407       1.826      3.8181E-03
   5    9.999       9.253       8.291       6.758       3.337       4.847       4.462       3.351       1.808      3.7800E-03
   6    9.999       9.300       8.450       7.315       5.912       5.432       4.635       3.409       1.828      3.8204E-03
   7    9.999       9.378       8.661       7.786       6.797       5.922       4.866       3.511       1.866      3.9005E-03
   8    9.999       9.446       8.821       8.075       7.201       6.221       5.041       3.600       1.902      3.9772E-03
   9    9.999       9.490       8.916       8.228       7.392       6.381       5.146       3.658       1.927      4.0304E-03
  10    9.999       9.510       8.959       8.293       7.469       6.448       5.193       3.686       1.940      4.0564E-03
1
              HEAD IN LAYER   3 AT END OF TIME STEP  83 IN STRESS PERIOD    3
  ---------------------------------------------------------------------------

            1           2           3           4           5           6           7           8           9          10
 ........................................................................................................................
   1    9.999       9.464       8.866       8.157       7.310       6.304       5.085       3.617       1.905      4.4881E-03
   2    9.999       9.432       8.793       8.036       7.156       6.178       5.005       3.573       1.887      4.4452E-03
   3    9.999       9.369       8.643       7.762       6.769       5.895       4.842       3.492       1.854      4.3678E-03
   4    9.999       9.293       8.437       7.297       5.897       5.412       4.617       3.394       1.817      4.2823E-03
   5    9.998       9.248       8.281       6.748       3.680       4.838       4.447       3.338       1.799      4.2397E-03
   6    9.999       9.295       8.440       7.301       5.902       5.416       4.620       3.397       1.819      4.2850E-03
   7    9.999       9.374       8.652       7.774       6.783       5.907       4.851       3.498       1.857      4.3751E-03
   8    9.999       9.442       8.813       8.064       7.188       6.207       5.027       3.588       1.894      4.4616E-03
   9    9.999       9.486       8.909       8.219       7.380       6.368       5.133       3.647       1.919      4.5217E-03
  10    9.999       9.507       8.953       8.284       7.458       6.436       5.181       3.675       1.932      4.5511E-03
1
              HEAD IN LAYER   4 AT END OF TIME STEP  83 IN STRESS PERIOD    3
  ---------------------------------------------------------------------------

            1           2           3           4           5           6           7           8           9          10
 ........................................................................................................................
   1    9.999       9.461       8.861       8.150       7.302       6.295       5.076       3.609       1.899      4.5389E-03
   2    9.999       9.429       8.787       8.028       7.147       6.169       4.996       3.565       1.881      4.4952E-03
   3    9.999       9.366       8.638       7.754       6.759       5.884       4.832       3.484       1.848      4.4165E-03
   4    9.999       9.290       8.431       7.288       5.893       5.401       4.606       3.386       1.812      4.3297E-03
   5    9.998       9.245       8.274       6.743       3.899       4.834       4.437       3.329       1.793      4.2864E-03
   6    9.999       9.292       8.434       7.292       5.898       5.406       4.610       3.388       1.813      4.3324E-03
   7    9.999       9.371       8.647       7.766       6.773       5.897       4.842       3.490       1.851      4.4240E-03
   8    9.999       9.439       8.808       8.057       7.179       6.198       5.018       3.580       1.888      4.5121E-03
   9    9.999       9.484       8.905       8.212       7.372       6.359       5.125       3.639       1.914      4.5734E-03
  10    9.999       9.504       8.948       8.278       7.450       6.427       5.173       3.667       1.926      4.6034E-03
1
              HEAD IN LAYER   5 AT END OF TIME STEP  83 IN STRESS PERIOD    3
  ---------------------------------------------------------------------------

            1           2           3           4           5           6           7           8           9          10
 ........................................................................................................................
   1    9.999       9.460       8.858       8.147       7.298       6.290       5.072       3.605       1.896      4.5402E-03
   2    9.999       9.427       8.785       8.025       7.143       6.164       4.991       3.561       1.878      4.4964E-03
   3    9.999       9.365       8.635       7.750       6.755       5.879       4.827       3.479       1.845      4.4173E-03
   4    9.999       9.288       8.427       7.284       5.891       5.396       4.601       3.381       1.809      4.3302E-03
   5    9.998       9.243       8.271       6.742       4.005       4.833       4.432       3.325       1.790      4.2868E-03
   6    9.999       9.290       8.431       7.288       5.896       5.401       4.605       3.384       1.810      4.3331E-03
   7    9.999       9.369       8.644       7.762       6.768       5.892       4.837       3.486       1.848      4.4249E-03
   8    9.999       9.438       8.805       8.053       7.175       6.193       5.014       3.576       1.885      4.5133E-03
   9    9.999       9.482       8.902       8.209       7.368       6.355       5.120       3.636       1.911      4.5749E-03
  10    9.999       9.503       8.946       8.275       7.447       6.423       5.168       3.664       1.924      4.6051E-03

 HEAD WILL BE SAVED ON UNIT   51 AT END OF TIME STEP   83, STRESS PERIOD    3

 DRAWDOWN WILL BE SAVED ON UNIT   52 AT END OF TIME STEP   83, STRESS PERIOD    3
1
  VOLUMETRIC BUDGET FOR ENTIRE MODEL AT END OF TIME STEP   83, STRESS PERIOD   3
  ------------------------------------------------------------------------------

     CUMULATIVE VOLUMES      L**3       RATES FOR THIS TIME STEP      L**3/T
     ------------------                 ------------------------

           IN:                                      IN:
           ---                                      ---
             STORAGE =      433259.7188               STORAGE =        1081.9114
       CONSTANT HEAD =           0.0000         CONSTANT HEAD =           0.0000
               WELLS =           0.0000                 WELLS =           0.0000
     HEAD DEP BOUNDS =       20655.1211       HEAD DEP BOUNDS =         361.8763

            TOTAL IN =      453914.8438              TOTAL IN =        1443.7876

          OUT:                                     OUT:
          ----                                     ----
             STORAGE =           0.0000               STORAGE =           0.0000
       CONSTANT HEAD =           0.0000         CONSTANT HEAD =           0.0000
               WELLS =       41500.0000                 WELLS =         500.0000
     HEAD DEP BOUNDS =      412415.7500       HEAD DEP BOUNDS =         943.8090

           TOTAL OUT =      453915.7500             TOTAL OUT =        1443.8090

            IN - OUT =          -0.9062              IN - OUT =      -2.1362E-02

 PERCENT DISCREPANCY =          -0.00     PERCENT DISCREPANCY =          -0.00






         TIME SUMMARY AT END OF TIME STEP   83 IN STRESS PERIOD    3
                    SECONDS     MINUTES      HOURS       DAYS        YEARS
                    -----------------------------------------------------------
   TIME STEP LENGTH  86400.      1440.0      24.000      1.0000     2.73785E-03
 STRESS PERIOD TIME 7.17120E+06 1.19520E+05  1992.0      83.000     0.22724    
         TOTAL TIME 1.58976E+07 2.64960E+05  4416.0      184.00     0.50376    
1
 
 SOLVING FOR HEAD 

 OUTPUT CONTROL FOR STRESS PERIOD    3   TIME STEP   84
    SAVE HEAD FOR ALL LAYERS
    SAVE DRAWDOWN FOR ALL LAYERS
    SAVE BUDGET
    PRINT HEAD FOR ALL LAYERS
    PRINT BUDGET
 UBDSV1 SAVING "         STORAGE" ON UNIT  53 AT TIME STEP 84, STRESS PERIOD   3
 UBDSV2 SAVING "   CONSTANT HEAD" ON UNIT  53 AT TIME STEP 84, STRESS PERIOD   3
 UBDSV1 SAVING "FLOW RIGHT FACE " ON UNIT  53 AT TIME STEP 84, STRESS PERIOD   3
 UBDSV1 SAVING "FLOW FRONT FACE " ON UNIT  53 AT TIME STEP 84, STRESS PERIOD   3
 UBDSV1 SAVING "FLOW LOWER FACE " ON UNIT  53 AT TIME STEP 84, STRESS PERIOD   3
1
              HEAD IN LAYER   1 AT END OF TIME STEP  84 IN STRESS PERIOD    3
  ---------------------------------------------------------------------------

            1           2           3           4           5           6           7           8           9          10
 ........................................................................................................................
   1    9.999       9.468       8.873       8.167       7.322       6.317       5.098       3.628       1.914      1.6750E-03
   2    9.999       9.436       8.800       8.046       7.169       6.191       5.018       3.585       1.896      1.6577E-03
   3    9.999       9.374       8.652       7.774       6.783       5.908       4.855       3.504       1.863      1.6266E-03
   4    9.999       9.298       8.447       7.310       5.905       5.425       4.629       3.406       1.827      1.5923E-03
   5    9.999       9.253       8.292       6.759       2.969       4.841       4.459       3.349       1.809      1.5750E-03
   6    9.999       9.300       8.450       7.315       5.910       5.430       4.633       3.408       1.828      1.5933E-03
   7    9.999       9.378       8.660       7.786       6.796       5.920       4.864       3.510       1.866      1.6295E-03
   8    9.999       9.446       8.820       8.074       7.200       6.220       5.040       3.599       1.903      1.6643E-03
   9    9.999       9.490       8.916       8.228       7.391       6.380       5.145       3.658       1.928      1.6884E-03
  10    9.999       9.510       8.959       8.293       7.468       6.447       5.192       3.685       1.941      1.7002E-03
1
              HEAD IN LAYER   2 AT END OF TIME STEP  84 IN STRESS PERIOD    3
  ---------------------------------------------------------------------------

            1           2           3           4           5           6           7           8           9          10
 ........................................................................................................................
   1    9.999       9.463       8.864       8.154       7.307       6.301       5.083       3.617       1.907      3.9869E-03
   2    9.999       9.430       8.790       8.033       7.153       6.175       5.003       3.573       1.888      3.9483E-03
   3    9.999       9.368       8.641       7.759       6.766       5.891       4.839       3.491       1.855      3.8788E-03
   4    9.999       9.292       8.435       7.294       5.888       5.408       4.614       3.393       1.819      3.8021E-03
   5    9.999       9.247       8.279       6.741       3.315       4.826       4.444       3.337       1.801      3.7637E-03
   6    9.999       9.294       8.438       7.298       5.893       5.412       4.617       3.396       1.820      3.8045E-03
   7    9.999       9.373       8.650       7.771       6.779       5.904       4.849       3.498       1.858      3.8854E-03
   8    9.999       9.441       8.811       8.061       7.184       6.204       5.026       3.588       1.895      3.9631E-03
   9    9.999       9.485       8.907       8.216       7.377       6.365       5.132       3.647       1.921      4.0172E-03
  10    9.999       9.505       8.951       8.282       7.455       6.433       5.179       3.675       1.934      4.0436E-03
1
              HEAD IN LAYER   3 AT END OF TIME STEP  84 IN STRESS PERIOD    3
  ---------------------------------------------------------------------------

            1           2           3           4           5           6           7           8           9          10
 ........................................................................................................................
   1    9.999       9.459       8.856       8.143       7.294       6.287       5.070       3.605       1.898      4.4725E-03
   2    9.999       9.426       8.782       8.021       7.139       6.161       4.989       3.561       1.880      4.4290E-03
   3    9.999       9.364       8.632       7.747       6.751       5.876       4.825       3.479       1.847      4.3508E-03
   4    9.999       9.287       8.425       7.280       5.878       5.392       4.599       3.381       1.810      4.2646E-03
   5    9.998       9.242       8.269       6.731       3.659       4.817       4.429       3.324       1.792      4.2216E-03
   6    9.999       9.289       8.429       7.285       5.883       5.397       4.602       3.383       1.811      4.2674E-03
   7    9.999       9.368       8.641       7.759       6.765       5.889       4.835       3.486       1.850      4.3583E-03
   8    9.999       9.437       8.803       8.050       7.172       6.191       5.012       3.576       1.887      4.4459E-03
   9    9.999       9.481       8.900       8.206       7.365       6.352       5.119       3.636       1.913      4.5069E-03
  10    9.999       9.502       8.944       8.272       7.444       6.421       5.167       3.664       1.926      4.5368E-03
1
              HEAD IN LAYER   4 AT END OF TIME STEP  84 IN STRESS PERIOD    3
  ---------------------------------------------------------------------------

            1           2           3           4           5           6           7           8           9          10
 ........................................................................................................................
   1    9.999       9.456       8.851       8.136       7.286       6.278       5.061       3.597       1.893      4.5231E-03
   2    9.999       9.423       8.777       8.014       7.130       6.151       4.980       3.553       1.874      4.4789E-03
   3    9.999       9.361       8.627       7.738       6.741       5.866       4.815       3.471       1.841      4.3993E-03
   4    9.999       9.284       8.419       7.271       5.873       5.382       4.589       3.372       1.804      4.3118E-03
   5    9.998       9.238       8.262       6.726       3.877       4.814       4.419       3.316       1.786      4.2682E-03
   6    9.999       9.286       8.422       7.276       5.878       5.386       4.592       3.375       1.805      4.3147E-03
   7    9.999       9.365       8.636       7.751       6.755       5.879       4.825       3.477       1.844      4.4071E-03
   8    9.999       9.434       8.798       8.043       7.163       6.181       5.003       3.568       1.881      4.4963E-03
   9    9.999       9.479       8.896       8.200       7.357       6.344       5.110       3.628       1.907      4.5585E-03
  10    9.999       9.500       8.940       8.266       7.436       6.413       5.159       3.657       1.920      4.5890E-03
1
              HEAD IN LAYER   5 AT END OF TIME STEP  84 IN STRESS PERIOD    3
  ---------------------------------------------------------------------------

            1           2           3           4           5           6           7           8           9          10
 ........................................................................................................................
   1    9.999       9.455       8.849       8.133       7.281       6.274       5.056       3.593       1.890      4.5244E-03
   2    9.999       9.422       8.774       8.010       7.126       6.146       4.975       3.549       1.871      4.4800E-03
   3    9.999       9.359       8.624       7.734       6.736       5.861       4.810       3.466       1.838      4.4002E-03
   4    9.999       9.282       8.416       7.267       5.872       5.376       4.584       3.368       1.801      4.3124E-03
   5    9.998       9.237       8.259       6.725       3.984       4.813       4.414       3.311       1.783      4.2687E-03
   6    9.999       9.284       8.419       7.272       5.877       5.381       4.587       3.370       1.802      4.3153E-03
   7    9.999       9.364       8.633       7.747       6.751       5.874       4.820       3.473       1.841      4.4081E-03
   8    9.999       9.433       8.796       8.040       7.159       6.177       4.999       3.564       1.879      4.4976E-03
   9    9.999       9.478       8.894       8.196       7.354       6.339       5.106       3.624       1.905      4.5601E-03
  10    9.999       9.499       8.938       8.263       7.433       6.409       5.155       3.653       1.918      4.5908E-03

 HEAD WILL BE SAVED ON UNIT   51 AT END OF TIME STEP   84, STRESS PERIOD    3

 DRAWDOWN WILL BE SAVED ON UNIT   52 AT END OF TIME STEP   84, STRESS PERIOD    3
1
  VOLUMETRIC BUDGET FOR ENTIRE MODEL AT END OF TIME STEP   84, STRESS PERIOD   3
  ------------------------------------------------------------------------------

     CUMULATIVE VOLUMES      L**3       RATES FOR THIS TIME STEP      L**3/T
     ------------------                 ------------------------

           IN:                                      IN:
           ---                                      ---
             STORAGE =      434334.8750               STORAGE =        1075.1584
       CONSTANT HEAD =           0.0000         CONSTANT HEAD =           0.0000
               WELLS =           0.0000                 WELLS =           0.0000
     HEAD DEP BOUNDS =       21020.2344       HEAD DEP BOUNDS =         365.1129

            TOTAL IN =      455355.1250              TOTAL IN =        1440.2714

          OUT:                                     OUT:
          ----                                     ----
             STORAGE =           0.0000               STORAGE =           0.0000
       CONSTANT HEAD =           0.0000         CONSTANT HEAD =           0.0000
               WELLS =       42000.0000                 WELLS =         500.0000
     HEAD DEP BOUNDS =      413356.0312       HEAD DEP BOUNDS =         940.2721

           TOTAL OUT =      455356.0312             TOTAL OUT =        1440.2721

            IN - OUT =          -0.9062              IN - OUT =      -7.3242E-04

 PERCENT DISCREPANCY =          -0.00     PERCENT DISCREPANCY =          -0.00






         TIME SUMMARY AT END OF TIME STEP   84 IN STRESS PERIOD    3
                    SECONDS     MINUTES      HOURS       DAYS        YEARS
                    -----------------------------------------------------------
   TIME STEP LENGTH  86400.      1440.0      24.000      1.0000     2.73785E-03
 STRESS PERIOD TIME 7.25760E+06 1.20960E+05  2016.0      84.000     0.22998    
         TOTAL TIME 1.59840E+07 2.66400E+05  4440.0      185.00     0.50650    
1
 
 SOLVING FOR HEAD 

 OUTPUT CONTROL FOR STRESS PERIOD    3   TIME STEP   85
    SAVE HEAD FOR ALL LAYERS
    SAVE DRAWDOWN FOR ALL LAYERS
    SAVE BUDGET
    PRINT HEAD FOR ALL LAYERS
    PRINT BUDGET
 UBDSV1 SAVING "         STORAGE" ON UNIT  53 AT TIME STEP 85, STRESS PERIOD   3
 UBDSV2 SAVING "   CONSTANT HEAD" ON UNIT  53 AT TIME STEP 85, STRESS PERIOD   3
 UBDSV1 SAVING "FLOW RIGHT FACE " ON UNIT  53 AT TIME STEP 85, STRESS PERIOD   3
 UBDSV1 SAVING "FLOW FRONT FACE " ON UNIT  53 AT TIME STEP 85, STRESS PERIOD   3
 UBDSV1 SAVING "FLOW LOWER FACE " ON UNIT  53 AT TIME STEP 85, STRESS PERIOD   3
1
              HEAD IN LAYER   1 AT END OF TIME STEP  85 IN STRESS PERIOD    3
  ---------------------------------------------------------------------------

            1           2           3           4           5           6           7           8           9          10
 ........................................................................................................................
   1    9.999       9.463       8.863       8.153       7.306       6.300       5.082       3.616       1.908      1.6686E-03
   2    9.999       9.430       8.790       8.032       7.152       6.174       5.002       3.573       1.889      1.6511E-03
   3    9.999       9.368       8.641       7.758       6.765       5.889       4.838       3.490       1.856      1.6198E-03
   4    9.999       9.292       8.435       7.294       5.886       5.405       4.611       3.392       1.819      1.5852E-03
   5    9.999       9.247       8.280       6.742       2.948       4.821       4.441       3.335       1.801      1.5678E-03
   6    9.999       9.294       8.438       7.298       5.891       5.410       4.615       3.395       1.820      1.5863E-03
   7    9.999       9.373       8.650       7.770       6.778       5.902       4.847       3.497       1.859      1.6228E-03
   8    9.999       9.441       8.810       8.060       7.183       6.203       5.024       3.587       1.896      1.6579E-03
   9    9.999       9.485       8.907       8.215       7.376       6.364       5.131       3.647       1.922      1.6825E-03
  10    9.999       9.505       8.950       8.281       7.454       6.432       5.179       3.675       1.935      1.6945E-03
1
              HEAD IN LAYER   2 AT END OF TIME STEP  85 IN STRESS PERIOD    3
  ---------------------------------------------------------------------------

            1           2           3           4           5           6           7           8           9          10
 ........................................................................................................................
   1    9.999       9.458       8.854       8.140       7.291       6.285       5.068       3.605       1.900      3.9729E-03
   2    9.999       9.425       8.780       8.018       7.136       6.158       4.987       3.561       1.882      3.9338E-03
   3    9.999       9.362       8.630       7.743       6.747       5.873       4.822       3.478       1.848      3.8636E-03
   4    9.999       9.286       8.423       7.277       5.868       5.388       4.596       3.380       1.811      3.7862E-03
   5    9.998       9.241       8.267       6.724       3.294       4.806       4.425       3.323       1.793      3.7477E-03
   6    9.999       9.288       8.426       7.282       5.873       5.393       4.600       3.382       1.813      3.7888E-03
   7    9.999       9.367       8.639       7.756       6.761       5.885       4.832       3.485       1.851      3.8704E-03
   8    9.999       9.436       8.801       8.047       7.168       6.188       5.010       3.576       1.889      3.9491E-03
   9    9.999       9.480       8.898       8.203       7.362       6.350       5.117       3.636       1.915      4.0040E-03
  10    9.999       9.501       8.942       8.270       7.441       6.418       5.166       3.664       1.928      4.0309E-03
1
              HEAD IN LAYER   3 AT END OF TIME STEP  85 IN STRESS PERIOD    3
  ---------------------------------------------------------------------------

            1           2           3           4           5           6           7           8           9          10
 ........................................................................................................................
   1    9.999       9.454       8.846       8.130       7.278       6.271       5.055       3.593       1.892      4.4569E-03
   2    9.999       9.421       8.772       8.007       7.122       6.143       4.973       3.549       1.873      4.4129E-03
   3    9.999       9.358       8.621       7.731       6.733       5.857       4.808       3.466       1.839      4.3339E-03
   4    9.999       9.281       8.413       7.264       5.858       5.372       4.581       3.367       1.802      4.2470E-03
   5    9.998       9.236       8.257       6.714       3.638       4.797       4.410       3.310       1.784      4.2038E-03
   6    9.999       9.283       8.417       7.269       5.863       5.377       4.585       3.370       1.804      4.2499E-03
   7    9.999       9.363       8.631       7.744       6.747       5.870       4.818       3.473       1.843      4.3417E-03
   8    9.999       9.432       8.793       8.037       7.155       6.174       4.997       3.564       1.880      4.4303E-03
   9    9.999       9.477       8.891       8.194       7.351       6.337       5.105       3.625       1.907      4.4923E-03
  10    9.999       9.498       8.936       8.261       7.430       6.406       5.153       3.653       1.920      4.5227E-03
1
              HEAD IN LAYER   4 AT END OF TIME STEP  85 IN STRESS PERIOD    3
  ---------------------------------------------------------------------------

            1           2           3           4           5           6           7           8           9          10
 ........................................................................................................................
   1    9.999       9.451       8.841       8.123       7.270       6.262       5.046       3.585       1.886      4.5074E-03
   2    9.999       9.418       8.767       8.000       7.113       6.134       4.964       3.541       1.867      4.4627E-03
   3    9.999       9.355       8.616       7.723       6.723       5.847       4.798       3.458       1.834      4.3823E-03
   4    9.999       9.278       8.407       7.255       5.854       5.362       4.571       3.359       1.797      4.2940E-03
   5    9.998       9.232       8.250       6.709       3.856       4.794       4.401       3.302       1.778      4.2502E-03
   6    9.999       9.280       8.411       7.260       5.859       5.367       4.575       3.361       1.798      4.2970E-03
   7    9.999       9.360       8.625       7.736       6.738       5.861       4.809       3.465       1.837      4.3904E-03
   8    9.999       9.429       8.788       8.029       7.147       6.165       4.988       3.556       1.875      4.4806E-03
   9    9.999       9.474       8.887       8.187       7.343       6.328       5.096       3.617       1.901      4.5437E-03
  10    9.999       9.496       8.931       8.255       7.422       6.398       5.145       3.646       1.914      4.5747E-03
1
              HEAD IN LAYER   5 AT END OF TIME STEP  85 IN STRESS PERIOD    3
  ---------------------------------------------------------------------------

            1           2           3           4           5           6           7           8           9          10
 ........................................................................................................................
   1    9.999       9.450       8.839       8.119       7.265       6.257       5.041       3.581       1.883      4.5087E-03
   2    9.999       9.417       8.764       7.996       7.109       6.129       4.959       3.537       1.864      4.4638E-03
   3    9.999       9.353       8.613       7.719       6.718       5.842       4.793       3.454       1.831      4.3832E-03
   4    9.999       9.276       8.404       7.251       5.852       5.357       4.566       3.354       1.794      4.2946E-03
   5    9.998       9.231       8.247       6.708       3.963       4.792       4.396       3.298       1.775      4.2507E-03
   6    9.999       9.278       8.408       7.256       5.858       5.362       4.570       3.357       1.795      4.2977E-03
   7    9.999       9.358       8.622       7.732       6.733       5.856       4.804       3.461       1.834      4.3913E-03
   8    9.999       9.428       8.786       8.026       7.143       6.160       4.983       3.553       1.872      4.4819E-03
   9    9.999       9.473       8.885       8.184       7.339       6.324       5.092       3.613       1.899      4.5453E-03
  10    9.999       9.494       8.929       8.252       7.419       6.394       5.141       3.642       1.912      4.5765E-03

 HEAD WILL BE SAVED ON UNIT   51 AT END OF TIME STEP   85, STRESS PERIOD    3

 DRAWDOWN WILL BE SAVED ON UNIT   52 AT END OF TIME STEP   85, STRESS PERIOD    3
1
  VOLUMETRIC BUDGET FOR ENTIRE MODEL AT END OF TIME STEP   85, STRESS PERIOD   3
  ------------------------------------------------------------------------------

     CUMULATIVE VOLUMES      L**3       RATES FOR THIS TIME STEP      L**3/T
     ------------------                 ------------------------

           IN:                                      IN:
           ---                                      ---
             STORAGE =      435403.3125               STORAGE =        1068.4390
       CONSTANT HEAD =           0.0000         CONSTANT HEAD =           0.0000
               WELLS =           0.0000                 WELLS =           0.0000
     HEAD DEP BOUNDS =       21388.5293       HEAD DEP BOUNDS =         368.2950

            TOTAL IN =      456791.8438              TOTAL IN =        1436.7340

          OUT:                                     OUT:
          ----                                     ----
             STORAGE =           0.0000               STORAGE =           0.0000
       CONSTANT HEAD =           0.0000         CONSTANT HEAD =           0.0000
               WELLS =       42500.0000                 WELLS =         500.0000
     HEAD DEP BOUNDS =      414292.7812       HEAD DEP BOUNDS =         936.7584

           TOTAL OUT =      456792.7812             TOTAL OUT =        1436.7583

            IN - OUT =          -0.9375              IN - OUT =      -2.4292E-02

 PERCENT DISCREPANCY =          -0.00     PERCENT DISCREPANCY =          -0.00






         TIME SUMMARY AT END OF TIME STEP   85 IN STRESS PERIOD    3
                    SECONDS     MINUTES      HOURS       DAYS        YEARS
                    -----------------------------------------------------------
   TIME STEP LENGTH  86400.      1440.0      24.000      1.0000     2.73785E-03
 STRESS PERIOD TIME 7.34400E+06 1.22400E+05  2040.0      85.000     0.23272    
         TOTAL TIME 1.60704E+07 2.67840E+05  4464.0      186.00     0.50924    
1
 
 SOLVING FOR HEAD 

 OUTPUT CONTROL FOR STRESS PERIOD    3   TIME STEP   86
    SAVE HEAD FOR ALL LAYERS
    SAVE DRAWDOWN FOR ALL LAYERS
    SAVE BUDGET
    PRINT HEAD FOR ALL LAYERS
    PRINT BUDGET
 UBDSV1 SAVING "         STORAGE" ON UNIT  53 AT TIME STEP 86, STRESS PERIOD   3
 UBDSV2 SAVING "   CONSTANT HEAD" ON UNIT  53 AT TIME STEP 86, STRESS PERIOD   3
 UBDSV1 SAVING "FLOW RIGHT FACE " ON UNIT  53 AT TIME STEP 86, STRESS PERIOD   3
 UBDSV1 SAVING "FLOW FRONT FACE " ON UNIT  53 AT TIME STEP 86, STRESS PERIOD   3
 UBDSV1 SAVING "FLOW LOWER FACE " ON UNIT  53 AT TIME STEP 86, STRESS PERIOD   3
1
              HEAD IN LAYER   1 AT END OF TIME STEP  86 IN STRESS PERIOD    3
  ---------------------------------------------------------------------------

            1           2           3           4           5           6           7           8           9          10
 ........................................................................................................................
   1    9.999       9.458       8.853       8.140       7.290       6.283       5.067       3.604       1.901      1.6624E-03
   2    9.999       9.425       8.780       8.017       7.135       6.156       4.986       3.560       1.882      1.6445E-03
   3    9.999       9.362       8.630       7.743       6.746       5.871       4.821       3.477       1.849      1.6128E-03
   4    9.999       9.286       8.423       7.277       5.866       5.385       4.594       3.379       1.812      1.5780E-03
   5    9.999       9.241       8.268       6.725       2.927       4.800       4.422       3.322       1.793      1.5606E-03
   6    9.999       9.288       8.426       7.282       5.871       5.390       4.597       3.381       1.813      1.5791E-03
   7    9.999       9.367       8.639       7.755       6.760       5.884       4.831       3.484       1.852      1.6161E-03
   8    9.999       9.436       8.801       8.047       7.167       6.186       5.009       3.575       1.890      1.6515E-03
   9    9.999       9.480       8.898       8.203       7.361       6.349       5.116       3.635       1.916      1.6765E-03
  10    9.999       9.501       8.942       8.269       7.440       6.418       5.165       3.664       1.929      1.6887E-03
1
              HEAD IN LAYER   2 AT END OF TIME STEP  86 IN STRESS PERIOD    3
  ---------------------------------------------------------------------------

            1           2           3           4           5           6           7           8           9          10
 ........................................................................................................................
   1    9.999       9.453       8.844       8.127       7.275       6.268       5.053       3.593       1.893      3.9589E-03
   2    9.999       9.420       8.770       8.004       7.119       6.140       4.971       3.549       1.875      3.9194E-03
   3    9.999       9.357       8.619       7.728       6.729       5.854       4.806       3.466       1.841      3.8485E-03
   4    9.999       9.280       8.411       7.261       5.849       5.368       4.578       3.366       1.804      3.7705E-03
   5    9.998       9.234       8.255       6.707       3.272       4.785       4.407       3.309       1.785      3.7317E-03
   6    9.999       9.282       8.415       7.266       5.854       5.373       4.582       3.369       1.805      3.7731E-03
   7    9.999       9.362       8.628       7.741       6.744       5.867       4.816       3.472       1.844      3.8556E-03
   8    9.999       9.431       8.791       8.034       7.152       6.171       4.995       3.564       1.882      3.9352E-03
   9    9.999       9.476       8.889       8.191       7.348       6.334       5.103       3.625       1.909      3.9909E-03
  10    9.999       9.497       8.934       8.258       7.427       6.404       5.152       3.653       1.922      4.0182E-03
1
              HEAD IN LAYER   3 AT END OF TIME STEP  86 IN STRESS PERIOD    3
  ---------------------------------------------------------------------------

            1           2           3           4           5           6           7           8           9          10
 ........................................................................................................................
   1    9.999       9.449       8.836       8.116       7.262       6.254       5.039       3.581       1.885      4.4413E-03
   2    9.999       9.416       8.762       7.993       7.106       6.126       4.957       3.537       1.866      4.3969E-03
   3    9.999       9.352       8.610       7.716       6.715       5.839       4.791       3.453       1.832      4.3171E-03
   4    9.999       9.275       8.402       7.248       5.839       5.352       4.563       3.354       1.795      4.2295E-03
   5    9.998       9.229       8.245       6.697       3.617       4.777       4.392       3.297       1.777      4.1860E-03
   6    9.999       9.277       8.405       7.253       5.844       5.357       4.567       3.356       1.796      4.2325E-03
   7    9.999       9.357       8.620       7.729       6.729       5.852       4.802       3.460       1.836      4.3252E-03
   8    9.999       9.427       8.784       8.023       7.139       6.157       4.982       3.552       1.874      4.4149E-03
   9    9.999       9.472       8.883       8.181       7.336       6.321       5.091       3.614       1.900      4.4777E-03
  10    9.999       9.493       8.927       8.249       7.416       6.391       5.140       3.643       1.914      4.5086E-03
1
              HEAD IN LAYER   4 AT END OF TIME STEP  86 IN STRESS PERIOD    3
  ---------------------------------------------------------------------------

            1           2           3           4           5           6           7           8           9          10
 ........................................................................................................................
   1    9.999       9.446       8.831       8.109       7.254       6.245       5.031       3.573       1.879      4.4917E-03
   2    9.999       9.413       8.757       7.985       7.097       6.117       4.948       3.529       1.861      4.4465E-03
   3    9.999       9.349       8.605       7.708       6.705       5.829       4.781       3.445       1.827      4.3654E-03
   4    9.999       9.272       8.396       7.239       5.835       5.342       4.553       3.345       1.789      4.2764E-03
   5    9.998       9.226       8.239       6.693       3.836       4.773       4.383       3.288       1.771      4.2323E-03
   6    9.999       9.274       8.399       7.244       5.840       5.347       4.557       3.348       1.791      4.2795E-03
   7    9.999       9.354       8.614       7.721       6.720       5.842       4.792       3.452       1.830      4.3737E-03
   8    9.999       9.424       8.779       8.016       7.131       6.148       4.973       3.545       1.868      4.4650E-03
   9    9.999       9.470       8.878       8.175       7.328       6.313       5.082       3.606       1.895      4.5290E-03
  10    9.999       9.491       8.923       8.243       7.408       6.383       5.132       3.635       1.908      4.5605E-03
1
              HEAD IN LAYER   5 AT END OF TIME STEP  86 IN STRESS PERIOD    3
  ---------------------------------------------------------------------------

            1           2           3           4           5           6           7           8           9          10
 ........................................................................................................................
   1    9.999       9.445       8.829       8.106       7.249       6.240       5.026       3.569       1.877      4.4930E-03
   2    9.999       9.411       8.754       7.982       7.092       6.112       4.944       3.525       1.858      4.4477E-03
   3    9.999       9.348       8.602       7.704       6.701       5.824       4.777       3.441       1.824      4.3663E-03
   4    9.999       9.270       8.392       7.235       5.833       5.337       4.548       3.341       1.786      4.2770E-03
   5    9.998       9.224       8.235       6.691       3.942       4.772       4.378       3.284       1.768      4.2329E-03
   6    9.999       9.272       8.396       7.240       5.839       5.342       4.552       3.344       1.788      4.2802E-03
   7    9.999       9.353       8.612       7.717       6.715       5.838       4.788       3.448       1.827      4.3747E-03
   8    9.999       9.423       8.776       8.012       7.127       6.144       4.968       3.541       1.866      4.4663E-03
   9    9.999       9.469       8.876       8.172       7.324       6.309       5.078       3.602       1.892      4.5306E-03
  10    9.999       9.490       8.921       8.240       7.405       6.379       5.128       3.632       1.906      4.5623E-03

 HEAD WILL BE SAVED ON UNIT   51 AT END OF TIME STEP   86, STRESS PERIOD    3

 DRAWDOWN WILL BE SAVED ON UNIT   52 AT END OF TIME STEP   86, STRESS PERIOD    3
1
  VOLUMETRIC BUDGET FOR ENTIRE MODEL AT END OF TIME STEP   86, STRESS PERIOD   3
  ------------------------------------------------------------------------------

     CUMULATIVE VOLUMES      L**3       RATES FOR THIS TIME STEP      L**3/T
     ------------------                 ------------------------

           IN:                                      IN:
           ---                                      ---
             STORAGE =      436465.0625               STORAGE =        1061.7534
       CONSTANT HEAD =           0.0000         CONSTANT HEAD =           0.0000
               WELLS =           0.0000                 WELLS =           0.0000
     HEAD DEP BOUNDS =       21760.0273       HEAD DEP BOUNDS =         371.4983

            TOTAL IN =      458225.0938              TOTAL IN =        1433.2517

          OUT:                                     OUT:
          ----                                     ----
             STORAGE =           0.0000               STORAGE =           0.0000
       CONSTANT HEAD =           0.0000         CONSTANT HEAD =           0.0000
               WELLS =       43000.0000                 WELLS =         500.0000
     HEAD DEP BOUNDS =      415226.0312       HEAD DEP BOUNDS =         933.2644

           TOTAL OUT =      458226.0312             TOTAL OUT =        1433.2644

            IN - OUT =          -0.9375              IN - OUT =      -1.2695E-02

 PERCENT DISCREPANCY =          -0.00     PERCENT DISCREPANCY =          -0.00






         TIME SUMMARY AT END OF TIME STEP   86 IN STRESS PERIOD    3
                    SECONDS     MINUTES      HOURS       DAYS        YEARS
                    -----------------------------------------------------------
   TIME STEP LENGTH  86400.      1440.0      24.000      1.0000     2.73785E-03
 STRESS PERIOD TIME 7.43040E+06 1.23840E+05  2064.0      86.000     0.23546    
         TOTAL TIME 1.61568E+07 2.69280E+05  4488.0      187.00     0.51198    
1
 
 SOLVING FOR HEAD 

 OUTPUT CONTROL FOR STRESS PERIOD    3   TIME STEP   87
    SAVE HEAD FOR ALL LAYERS
    SAVE DRAWDOWN FOR ALL LAYERS
    SAVE BUDGET
    PRINT HEAD FOR ALL LAYERS
    PRINT BUDGET
 UBDSV1 SAVING "         STORAGE" ON UNIT  53 AT TIME STEP 87, STRESS PERIOD   3
 UBDSV2 SAVING "   CONSTANT HEAD" ON UNIT  53 AT TIME STEP 87, STRESS PERIOD   3
 UBDSV1 SAVING "FLOW RIGHT FACE " ON UNIT  53 AT TIME STEP 87, STRESS PERIOD   3
 UBDSV1 SAVING "FLOW FRONT FACE " ON UNIT  53 AT TIME STEP 87, STRESS PERIOD   3
 UBDSV1 SAVING "FLOW LOWER FACE " ON UNIT  53 AT TIME STEP 87, STRESS PERIOD   3
1
              HEAD IN LAYER   1 AT END OF TIME STEP  87 IN STRESS PERIOD    3
  ---------------------------------------------------------------------------

            1           2           3           4           5           6           7           8           9          10
 ........................................................................................................................
   1    9.999       9.453       8.844       8.126       7.274       6.267       5.052       3.592       1.894      1.6560E-03
   2    9.999       9.420       8.769       8.003       7.118       6.139       4.970       3.548       1.875      1.6382E-03
   3    9.999       9.357       8.619       7.727       6.728       5.852       4.804       3.465       1.841      1.6060E-03
   4    9.999       9.280       8.411       7.261       5.847       5.365       4.576       3.365       1.804      1.5710E-03
   5    9.999       9.235       8.256       6.708       2.906       4.780       4.404       3.308       1.786      1.5535E-03
   6    9.999       9.282       8.415       7.266       5.852       5.370       4.580       3.368       1.805      1.5722E-03
   7    9.999       9.362       8.628       7.740       6.743       5.866       4.814       3.471       1.845      1.6094E-03
   8    9.999       9.431       8.791       8.033       7.151       6.170       4.994       3.564       1.883      1.6453E-03
   9    9.999       9.476       8.889       8.190       7.347       6.333       5.102       3.624       1.910      1.6706E-03
  10    9.999       9.497       8.933       8.257       7.426       6.403       5.151       3.653       1.923      1.6830E-03
1
              HEAD IN LAYER   2 AT END OF TIME STEP  87 IN STRESS PERIOD    3
  ---------------------------------------------------------------------------

            1           2           3           4           5           6           7           8           9          10
 ........................................................................................................................
   1    9.999       9.448       8.834       8.113       7.259       6.251       5.038       3.581       1.887      3.9450E-03
   2    9.999       9.414       8.760       7.990       7.102       6.123       4.955       3.536       1.868      3.9051E-03
   3    9.999       9.351       8.608       7.713       6.711       5.836       4.789       3.453       1.834      3.8335E-03
   4    9.999       9.274       8.400       7.245       5.830       5.348       4.561       3.353       1.796      3.7548E-03
   5    9.998       9.228       8.243       6.690       3.251       4.765       4.389       3.296       1.778      3.7158E-03
   6    9.999       9.276       8.403       7.250       5.835       5.353       4.565       3.356       1.798      3.7576E-03
   7    9.999       9.356       8.618       7.726       6.726       5.849       4.800       3.460       1.837      3.8408E-03
   8    9.999       9.426       8.782       8.020       7.136       6.154       4.980       3.552       1.876      3.9214E-03
   9    9.999       9.471       8.880       8.179       7.333       6.319       5.089       3.614       1.902      3.9778E-03
  10    9.999       9.492       8.925       8.246       7.413       6.389       5.139       3.643       1.916      4.0056E-03
1
              HEAD IN LAYER   3 AT END OF TIME STEP  87 IN STRESS PERIOD    3
  ---------------------------------------------------------------------------

            1           2           3           4           5           6           7           8           9          10
 ........................................................................................................................
   1    9.999       9.444       8.827       8.103       7.246       6.238       5.024       3.569       1.878      4.4259E-03
   2    9.999       9.410       8.752       7.979       7.089       6.109       4.942       3.525       1.859      4.3810E-03
   3    9.999       9.346       8.599       7.701       6.697       5.820       4.774       3.440       1.825      4.3004E-03
   4    9.999       9.269       8.390       7.232       5.820       5.333       4.546       3.340       1.788      4.2121E-03
   5    9.998       9.223       8.233       6.680       3.596       4.757       4.375       3.283       1.769      4.1684E-03
   6    9.999       9.271       8.394       7.237       5.825       5.338       4.550       3.343       1.789      4.2153E-03
   7    9.999       9.352       8.609       7.714       6.712       5.834       4.785       3.448       1.829      4.3088E-03
   8    9.999       9.422       8.774       8.010       7.124       6.141       4.967       3.541       1.867      4.3995E-03
   9    9.999       9.467       8.874       8.169       7.321       6.306       5.076       3.603       1.894      4.4632E-03
  10    9.999       9.489       8.919       8.237       7.402       6.377       5.126       3.632       1.908      4.4946E-03
1
              HEAD IN LAYER   4 AT END OF TIME STEP  87 IN STRESS PERIOD    3
  ---------------------------------------------------------------------------

            1           2           3           4           5           6           7           8           9          10
 ........................................................................................................................
   1    9.999       9.441       8.822       8.096       7.238       6.228       5.015       3.562       1.873      4.4761E-03
   2    9.999       9.408       8.746       7.971       7.080       6.099       4.933       3.517       1.854      4.4304E-03
   3    9.999       9.344       8.594       7.693       6.687       5.810       4.765       3.432       1.820      4.3485E-03
   4    9.999       9.266       8.384       7.223       5.816       5.323       4.536       3.332       1.782      4.2589E-03
   5    9.998       9.220       8.227       6.676       3.815       4.753       4.365       3.275       1.763      4.2145E-03
   6    9.999       9.268       8.388       7.228       5.821       5.328       4.540       3.335       1.783      4.2621E-03
   7    9.999       9.349       8.604       7.706       6.703       5.825       4.776       3.440       1.823      4.3572E-03
   8    9.999       9.419       8.769       8.003       7.115       6.132       4.958       3.533       1.862      4.4495E-03
   9    9.999       9.465       8.869       8.163       7.313       6.298       5.068       3.595       1.889      4.5144E-03
  10    9.999       9.487       8.915       8.231       7.395       6.369       5.118       3.625       1.902      4.5464E-03
1
              HEAD IN LAYER   5 AT END OF TIME STEP  87 IN STRESS PERIOD    3
  ---------------------------------------------------------------------------

            1           2           3           4           5           6           7           8           9          10
 ........................................................................................................................
   1    9.999       9.440       8.819       8.092       7.234       6.224       5.011       3.558       1.870      4.4775E-03
   2    9.999       9.406       8.744       7.968       7.076       6.095       4.928       3.513       1.851      4.4316E-03
   3    9.999       9.342       8.591       7.689       6.683       5.805       4.760       3.428       1.817      4.3495E-03
   4    9.999       9.264       8.381       7.219       5.814       5.318       4.531       3.328       1.779      4.2595E-03
   5    9.998       9.218       8.224       6.675       3.922       4.752       4.360       3.271       1.760      4.2151E-03
   6    9.999       9.266       8.385       7.224       5.820       5.323       4.535       3.331       1.780      4.2628E-03
   7    9.999       9.347       8.601       7.702       6.698       5.820       4.771       3.436       1.820      4.3582E-03
   8    9.999       9.418       8.767       7.999       7.111       6.127       4.953       3.529       1.859      4.4508E-03
   9    9.999       9.464       8.867       8.159       7.310       6.293       5.064       3.592       1.886      4.5160E-03
  10    9.999       9.486       8.912       8.228       7.391       6.365       5.114       3.621       1.900      4.5482E-03

 HEAD WILL BE SAVED ON UNIT   51 AT END OF TIME STEP   87, STRESS PERIOD    3

 DRAWDOWN WILL BE SAVED ON UNIT   52 AT END OF TIME STEP   87, STRESS PERIOD    3
1
  VOLUMETRIC BUDGET FOR ENTIRE MODEL AT END OF TIME STEP   87, STRESS PERIOD   3
  ------------------------------------------------------------------------------

     CUMULATIVE VOLUMES      L**3       RATES FOR THIS TIME STEP      L**3/T
     ------------------                 ------------------------

           IN:                                      IN:
           ---                                      ---
             STORAGE =      437520.1875               STORAGE =        1055.1185
       CONSTANT HEAD =           0.0000         CONSTANT HEAD =           0.0000
               WELLS =           0.0000                 WELLS =           0.0000
     HEAD DEP BOUNDS =       22134.6992       HEAD DEP BOUNDS =         374.6714

            TOTAL IN =      459654.8750              TOTAL IN =        1429.7899

          OUT:                                     OUT:
          ----                                     ----
             STORAGE =           0.0000               STORAGE =           0.0000
       CONSTANT HEAD =           0.0000         CONSTANT HEAD =           0.0000
               WELLS =       43500.0000                 WELLS =         500.0000
     HEAD DEP BOUNDS =      416155.8125       HEAD DEP BOUNDS =         929.7969

           TOTAL OUT =      459655.8125             TOTAL OUT =        1429.7969

            IN - OUT =          -0.9375              IN - OUT =      -6.9580E-03

 PERCENT DISCREPANCY =          -0.00     PERCENT DISCREPANCY =          -0.00






         TIME SUMMARY AT END OF TIME STEP   87 IN STRESS PERIOD    3
                    SECONDS     MINUTES      HOURS       DAYS        YEARS
                    -----------------------------------------------------------
   TIME STEP LENGTH  86400.      1440.0      24.000      1.0000     2.73785E-03
 STRESS PERIOD TIME 7.51680E+06 1.25280E+05  2088.0      87.000     0.23819    
         TOTAL TIME 1.62432E+07 2.70720E+05  4512.0      188.00     0.51472    
1
 
 SOLVING FOR HEAD 

 OUTPUT CONTROL FOR STRESS PERIOD    3   TIME STEP   88
    SAVE HEAD FOR ALL LAYERS
    SAVE DRAWDOWN FOR ALL LAYERS
    SAVE BUDGET
    PRINT HEAD FOR ALL LAYERS
    PRINT BUDGET
 UBDSV1 SAVING "         STORAGE" ON UNIT  53 AT TIME STEP 88, STRESS PERIOD   3
 UBDSV2 SAVING "   CONSTANT HEAD" ON UNIT  53 AT TIME STEP 88, STRESS PERIOD   3
 UBDSV1 SAVING "FLOW RIGHT FACE " ON UNIT  53 AT TIME STEP 88, STRESS PERIOD   3
 UBDSV1 SAVING "FLOW FRONT FACE " ON UNIT  53 AT TIME STEP 88, STRESS PERIOD   3
 UBDSV1 SAVING "FLOW LOWER FACE " ON UNIT  53 AT TIME STEP 88, STRESS PERIOD   3
1
              HEAD IN LAYER   1 AT END OF TIME STEP  88 IN STRESS PERIOD    3
  ---------------------------------------------------------------------------

            1           2           3           4           5           6           7           8           9          10
 ........................................................................................................................
   1    9.999       9.448       8.834       8.112       7.258       6.250       5.037       3.581       1.888      1.6497E-03
   2    9.999       9.414       8.759       7.989       7.101       6.122       4.954       3.536       1.869      1.6318E-03
   3    9.999       9.351       8.608       7.712       6.710       5.834       4.787       3.452       1.834      1.5994E-03
   4    9.999       9.274       8.400       7.245       5.828       5.346       4.558       3.352       1.797      1.5639E-03
   5    9.999       9.229       8.244       6.692       2.885       4.760       4.386       3.294       1.778      1.5465E-03
   6    9.999       9.276       8.403       7.250       5.833       5.351       4.562       3.354       1.798      1.5652E-03
   7    9.999       9.356       8.617       7.726       6.725       5.847       4.798       3.459       1.838      1.6027E-03
   8    9.999       9.426       8.781       8.020       7.135       6.153       4.979       3.552       1.876      1.6392E-03
   9    9.999       9.471       8.880       8.178       7.332       6.318       5.088       3.613       1.903      1.6648E-03
  10    9.999       9.492       8.925       8.246       7.412       6.388       5.138       3.643       1.917      1.6774E-03
1
              HEAD IN LAYER   2 AT END OF TIME STEP  88 IN STRESS PERIOD    3
  ---------------------------------------------------------------------------

            1           2           3           4           5           6           7           8           9          10
 ........................................................................................................................
   1    9.999       9.443       8.824       8.100       7.243       6.235       5.023       3.569       1.880      3.9312E-03
   2    9.999       9.409       8.749       7.976       7.086       6.106       4.940       3.524       1.861      3.8909E-03
   3    9.999       9.345       8.597       7.698       6.694       5.817       4.772       3.440       1.827      3.8186E-03
   4    9.999       9.268       8.388       7.229       5.811       5.329       4.543       3.340       1.789      3.7393E-03
   5    9.998       9.222       8.231       6.674       3.230       4.745       4.371       3.282       1.770      3.7001E-03
   6    9.999       9.270       8.392       7.234       5.816       5.334       4.547       3.342       1.790      3.7422E-03
   7    9.999       9.351       8.607       7.711       6.709       5.831       4.783       3.447       1.830      3.8262E-03
   8    9.999       9.421       8.772       8.007       7.120       6.138       4.965       3.541       1.869      3.9076E-03
   9    9.999       9.466       8.872       8.166       7.318       6.304       5.075       3.603       1.896      3.9649E-03
  10    9.999       9.488       8.917       8.234       7.399       6.375       5.125       3.632       1.910      3.9931E-03
1
              HEAD IN LAYER   3 AT END OF TIME STEP  88 IN STRESS PERIOD    3
  ---------------------------------------------------------------------------

            1           2           3           4           5           6           7           8           9          10
 ........................................................................................................................
   1    9.999       9.439       8.817       8.089       7.230       6.221       5.009       3.558       1.872      4.4105E-03
   2    9.999       9.405       8.742       7.965       7.072       6.092       4.926       3.513       1.853      4.3651E-03
   3    9.999       9.341       8.589       7.686       6.679       5.802       4.758       3.428       1.818      4.2838E-03
   4    9.999       9.263       8.379       7.216       5.801       5.314       4.528       3.327       1.780      4.1949E-03
   5    9.998       9.217       8.222       6.664       3.575       4.737       4.357       3.270       1.762      4.1509E-03
   6    9.999       9.265       8.383       7.221       5.806       5.319       4.533       3.330       1.782      4.1981E-03
   7    9.999       9.346       8.599       7.700       6.695       5.817       4.769       3.435       1.822      4.2925E-03
   8    9.999       9.417       8.764       7.996       7.108       6.124       4.952       3.529       1.861      4.3842E-03
   9    9.999       9.463       8.865       8.157       7.307       6.291       5.063       3.592       1.888      4.4488E-03
  10    9.999       9.485       8.910       8.225       7.388       6.362       5.113       3.622       1.902      4.4807E-03
1
              HEAD IN LAYER   4 AT END OF TIME STEP  88 IN STRESS PERIOD    3
  ---------------------------------------------------------------------------

            1           2           3           4           5           6           7           8           9          10
 ........................................................................................................................
   1    9.999       9.436       8.812       8.082       7.222       6.212       5.000       3.550       1.866      4.4606E-03
   2    9.999       9.402       8.736       7.957       7.064       6.082       4.917       3.505       1.847      4.4145E-03
   3    9.999       9.338       8.583       7.678       6.670       5.792       4.748       3.420       1.813      4.3318E-03
   4    9.999       9.260       8.373       7.207       5.797       5.304       4.519       3.319       1.775      4.2415E-03
   5    9.998       9.214       8.215       6.660       3.795       4.734       4.347       3.261       1.756      4.1969E-03
   6    9.999       9.262       8.377       7.212       5.802       5.309       4.523       3.322       1.776      4.2449E-03
   7    9.999       9.343       8.593       7.692       6.685       5.807       4.760       3.427       1.816      4.3408E-03
   8    9.999       9.414       8.760       7.989       7.099       6.115       4.943       3.522       1.855      4.4341E-03
   9    9.999       9.461       8.860       8.150       7.299       6.283       5.054       3.584       1.883      4.4999E-03
  10    9.999       9.482       8.906       8.219       7.381       6.354       5.105       3.614       1.897      4.5324E-03
1
              HEAD IN LAYER   5 AT END OF TIME STEP  88 IN STRESS PERIOD    3
  ---------------------------------------------------------------------------

            1           2           3           4           5           6           7           8           9          10
 ........................................................................................................................
   1    9.999       9.435       8.810       8.079       7.218       6.207       4.996       3.546       1.864      4.4620E-03
   2    9.999       9.401       8.734       7.954       7.059       6.078       4.912       3.501       1.844      4.4156E-03
   3    9.999       9.336       8.580       7.674       6.665       5.787       4.744       3.416       1.810      4.3327E-03
   4    9.999       9.258       8.370       7.203       5.795       5.299       4.514       3.315       1.772      4.2422E-03
   5    9.998       9.212       8.212       6.658       3.901       4.733       4.343       3.257       1.753      4.1975E-03
   6    9.999       9.260       8.373       7.208       5.801       5.304       4.518       3.318       1.773      4.2456E-03
   7    9.999       9.342       8.591       7.688       6.681       5.802       4.755       3.423       1.813      4.3418E-03
   8    9.999       9.413       8.757       7.986       7.095       6.111       4.938       3.518       1.853      4.4354E-03
   9    9.999       9.459       8.858       8.147       7.295       6.278       5.050       3.581       1.880      4.5015E-03
  10    9.999       9.481       8.904       8.216       7.377       6.350       5.101       3.611       1.894      4.5342E-03

 HEAD WILL BE SAVED ON UNIT   51 AT END OF TIME STEP   88, STRESS PERIOD    3

 DRAWDOWN WILL BE SAVED ON UNIT   52 AT END OF TIME STEP   88, STRESS PERIOD    3
1
  VOLUMETRIC BUDGET FOR ENTIRE MODEL AT END OF TIME STEP   88, STRESS PERIOD   3
  ------------------------------------------------------------------------------

     CUMULATIVE VOLUMES      L**3       RATES FOR THIS TIME STEP      L**3/T
     ------------------                 ------------------------

           IN:                                      IN:
           ---                                      ---
             STORAGE =      438568.6875               STORAGE =        1048.5096
       CONSTANT HEAD =           0.0000         CONSTANT HEAD =           0.0000
               WELLS =           0.0000                 WELLS =           0.0000
     HEAD DEP BOUNDS =       22512.5195       HEAD DEP BOUNDS =         377.8209

            TOTAL IN =      461081.2188              TOTAL IN =        1426.3306

          OUT:                                     OUT:
          ----                                     ----
             STORAGE =           0.0000               STORAGE =           0.0000
       CONSTANT HEAD =           0.0000         CONSTANT HEAD =           0.0000
               WELLS =       44000.0000                 WELLS =         500.0000
     HEAD DEP BOUNDS =      417082.1562       HEAD DEP BOUNDS =         926.3520

           TOTAL OUT =      461082.1562             TOTAL OUT =        1426.3521

            IN - OUT =          -0.9375              IN - OUT =      -2.1484E-02

 PERCENT DISCREPANCY =          -0.00     PERCENT DISCREPANCY =          -0.00






         TIME SUMMARY AT END OF TIME STEP   88 IN STRESS PERIOD    3
                    SECONDS     MINUTES      HOURS       DAYS        YEARS
                    -----------------------------------------------------------
   TIME STEP LENGTH  86400.      1440.0      24.000      1.0000     2.73785E-03
 STRESS PERIOD TIME 7.60320E+06 1.26720E+05  2112.0      88.000     0.24093    
         TOTAL TIME 1.63296E+07 2.72160E+05  4536.0      189.00     0.51745    
1
 
 SOLVING FOR HEAD 

 OUTPUT CONTROL FOR STRESS PERIOD    3   TIME STEP   89
    SAVE HEAD FOR ALL LAYERS
    SAVE DRAWDOWN FOR ALL LAYERS
    SAVE BUDGET
    PRINT HEAD FOR ALL LAYERS
    PRINT BUDGET
 UBDSV1 SAVING "         STORAGE" ON UNIT  53 AT TIME STEP 89, STRESS PERIOD   3
 UBDSV2 SAVING "   CONSTANT HEAD" ON UNIT  53 AT TIME STEP 89, STRESS PERIOD   3
 UBDSV1 SAVING "FLOW RIGHT FACE " ON UNIT  53 AT TIME STEP 89, STRESS PERIOD   3
 UBDSV1 SAVING "FLOW FRONT FACE " ON UNIT  53 AT TIME STEP 89, STRESS PERIOD   3
 UBDSV1 SAVING "FLOW LOWER FACE " ON UNIT  53 AT TIME STEP 89, STRESS PERIOD   3
1
              HEAD IN LAYER   1 AT END OF TIME STEP  89 IN STRESS PERIOD    3
  ---------------------------------------------------------------------------

            1           2           3           4           5           6           7           8           9          10
 ........................................................................................................................
   1    9.999       9.443       8.824       8.099       7.242       6.233       5.021       3.569       1.881      1.6436E-03
   2    9.999       9.409       8.749       7.975       7.085       6.104       4.938       3.524       1.862      1.6254E-03
   3    9.999       9.345       8.597       7.697       6.693       5.815       4.771       3.439       1.827      1.5927E-03
   4    9.999       9.268       8.388       7.229       5.809       5.326       4.541       3.338       1.789      1.5571E-03
   5    9.998       9.223       8.232       6.675       2.864       4.740       4.369       3.281       1.771      1.5395E-03
   6    9.999       9.270       8.392       7.234       5.814       5.332       4.545       3.341       1.791      1.5584E-03
   7    9.999       9.351       8.607       7.711       6.708       5.830       4.782       3.446       1.831      1.5963E-03
   8    9.999       9.421       8.772       8.006       7.120       6.137       4.964       3.540       1.870      1.6331E-03
   9    9.999       9.466       8.871       8.166       7.317       6.303       5.074       3.602       1.897      1.6590E-03
  10    9.999       9.488       8.917       8.234       7.398       6.374       5.124       3.632       1.911      1.6718E-03
1
              HEAD IN LAYER   2 AT END OF TIME STEP  89 IN STRESS PERIOD    3
  ---------------------------------------------------------------------------

            1           2           3           4           5           6           7           8           9          10
 ........................................................................................................................
   1    9.999       9.437       8.815       8.086       7.227       6.218       5.008       3.558       1.874      3.9175E-03
   2    9.999       9.404       8.739       7.961       7.069       6.089       4.924       3.512       1.854      3.8767E-03
   3    9.999       9.340       8.586       7.683       6.676       5.799       4.756       3.427       1.820      3.8037E-03
   4    9.999       9.262       8.377       7.213       5.792       5.310       4.526       3.326       1.782      3.7239E-03
   5    9.998       9.216       8.220       6.657       3.210       4.725       4.354       3.269       1.763      3.6845E-03
   6    9.999       9.264       8.381       7.218       5.798       5.315       4.530       3.329       1.783      3.7269E-03
   7    9.999       9.345       8.597       7.697       6.691       5.813       4.767       3.435       1.823      3.8116E-03
   8    9.999       9.416       8.762       7.993       7.105       6.122       4.950       3.529       1.863      3.8940E-03
   9    9.999       9.462       8.863       8.154       7.304       6.288       5.061       3.592       1.890      3.9520E-03
  10    9.999       9.484       8.908       8.223       7.385       6.360       5.112       3.622       1.904      3.9807E-03
1
              HEAD IN LAYER   3 AT END OF TIME STEP  89 IN STRESS PERIOD    3
  ---------------------------------------------------------------------------

            1           2           3           4           5           6           7           8           9          10
 ........................................................................................................................
   1    9.999       9.434       8.807       8.076       7.214       6.205       4.994       3.546       1.865      4.3953E-03
   2    9.999       9.400       8.731       7.950       7.056       6.075       4.911       3.501       1.846      4.3494E-03
   3    9.999       9.335       8.578       7.671       6.662       5.784       4.742       3.415       1.811      4.2673E-03
   4    9.999       9.257       8.367       7.200       5.782       5.294       4.511       3.314       1.773      4.1777E-03
   5    9.998       9.211       8.210       6.648       3.555       4.717       4.339       3.256       1.754      4.1336E-03
   6    9.999       9.259       8.371       7.205       5.788       5.300       4.516       3.317       1.775      4.1811E-03
   7    9.999       9.341       8.588       7.685       6.678       5.799       4.753       3.423       1.815      4.2764E-03
   8    9.999       9.412       8.755       7.983       7.092       6.108       4.937       3.518       1.854      4.3691E-03
   9    9.999       9.458       8.856       8.144       7.292       6.276       5.049       3.581       1.882      4.4345E-03
  10    9.999       9.480       8.902       8.214       7.374       6.348       5.100       3.611       1.896      4.4668E-03
1
              HEAD IN LAYER   4 AT END OF TIME STEP  89 IN STRESS PERIOD    3
  ---------------------------------------------------------------------------

            1           2           3           4           5           6           7           8           9          10
 ........................................................................................................................
   1    9.999       9.431       8.802       8.069       7.206       6.196       4.985       3.538       1.860      4.4452E-03
   2    9.999       9.397       8.726       7.943       7.047       6.065       4.901       3.493       1.840      4.3986E-03
   3    9.999       9.332       8.572       7.663       6.652       5.774       4.732       3.407       1.806      4.3152E-03
   4    9.999       9.254       8.361       7.191       5.778       5.284       4.502       3.306       1.767      4.2242E-03
   5    9.998       9.208       8.204       6.643       3.775       4.714       4.330       3.248       1.749      4.1794E-03
   6    9.999       9.256       8.365       7.196       5.784       5.290       4.506       3.309       1.769      4.2278E-03
   7    9.999       9.338       8.583       7.677       6.668       5.789       4.744       3.415       1.809      4.3245E-03
   8    9.999       9.409       8.750       7.976       7.084       6.099       4.928       3.510       1.849      4.4188E-03
   9    9.999       9.456       8.852       8.138       7.285       6.268       5.040       3.574       1.877      4.4854E-03
  10    9.999       9.478       8.898       8.208       7.367       6.340       5.092       3.604       1.891      4.5184E-03
1
              HEAD IN LAYER   5 AT END OF TIME STEP  89 IN STRESS PERIOD    3
  ---------------------------------------------------------------------------

            1           2           3           4           5           6           7           8           9          10
 ........................................................................................................................
   1    9.999       9.430       8.800       8.065       7.202       6.191       4.981       3.535       1.857      4.4466E-03
   2    9.999       9.396       8.724       7.940       7.043       6.061       4.897       3.489       1.838      4.3998E-03
   3    9.999       9.331       8.569       7.659       6.648       5.769       4.727       3.403       1.803      4.3162E-03
   4    9.999       9.252       8.358       7.187       5.777       5.279       4.497       3.302       1.765      4.2249E-03
   5    9.998       9.206       8.200       6.642       3.881       4.713       4.325       3.244       1.746      4.1801E-03
   6    9.999       9.255       8.362       7.192       5.783       5.285       4.501       3.305       1.766      4.2285E-03
   7    9.999       9.336       8.580       7.673       6.664       5.784       4.739       3.411       1.807      4.3255E-03
   8    9.999       9.408       8.748       7.972       7.080       6.095       4.924       3.506       1.846      4.4202E-03
   9    9.999       9.455       8.849       8.135       7.281       6.263       5.036       3.570       1.874      4.4871E-03
  10    9.999       9.477       8.896       8.205       7.363       6.336       5.088       3.601       1.888      4.5202E-03

 HEAD WILL BE SAVED ON UNIT   51 AT END OF TIME STEP   89, STRESS PERIOD    3

 DRAWDOWN WILL BE SAVED ON UNIT   52 AT END OF TIME STEP   89, STRESS PERIOD    3
1
  VOLUMETRIC BUDGET FOR ENTIRE MODEL AT END OF TIME STEP   89, STRESS PERIOD   3
  ------------------------------------------------------------------------------

     CUMULATIVE VOLUMES      L**3       RATES FOR THIS TIME STEP      L**3/T
     ------------------                 ------------------------

           IN:                                      IN:
           ---                                      ---
             STORAGE =      439610.6562               STORAGE =        1041.9611
       CONSTANT HEAD =           0.0000         CONSTANT HEAD =           0.0000
               WELLS =           0.0000                 WELLS =           0.0000
     HEAD DEP BOUNDS =       22893.4805       HEAD DEP BOUNDS =         380.9614

            TOTAL IN =      462504.1250              TOTAL IN =        1422.9225

          OUT:                                     OUT:
          ----                                     ----
             STORAGE =           0.0000               STORAGE =           0.0000
       CONSTANT HEAD =           0.0000         CONSTANT HEAD =           0.0000
               WELLS =       44500.0000                 WELLS =         500.0000
     HEAD DEP BOUNDS =      418005.0938       HEAD DEP BOUNDS =         922.9299

           TOTAL OUT =      462505.0938             TOTAL OUT =        1422.9299

            IN - OUT =          -0.9688              IN - OUT =      -7.4463E-03

 PERCENT DISCREPANCY =          -0.00     PERCENT DISCREPANCY =          -0.00






         TIME SUMMARY AT END OF TIME STEP   89 IN STRESS PERIOD    3
                    SECONDS     MINUTES      HOURS       DAYS        YEARS
                    -----------------------------------------------------------
   TIME STEP LENGTH  86400.      1440.0      24.000      1.0000     2.73785E-03
 STRESS PERIOD TIME 7.68960E+06 1.28160E+05  2136.0      89.000     0.24367    
         TOTAL TIME 1.64160E+07 2.73600E+05  4560.0      190.00     0.52019    
1
 
 SOLVING FOR HEAD 

 OUTPUT CONTROL FOR STRESS PERIOD    3   TIME STEP   90
    SAVE HEAD FOR ALL LAYERS
    SAVE DRAWDOWN FOR ALL LAYERS
    SAVE BUDGET
    PRINT HEAD FOR ALL LAYERS
    PRINT BUDGET
 UBDSV1 SAVING "         STORAGE" ON UNIT  53 AT TIME STEP 90, STRESS PERIOD   3
 UBDSV2 SAVING "   CONSTANT HEAD" ON UNIT  53 AT TIME STEP 90, STRESS PERIOD   3
 UBDSV1 SAVING "FLOW RIGHT FACE " ON UNIT  53 AT TIME STEP 90, STRESS PERIOD   3
 UBDSV1 SAVING "FLOW FRONT FACE " ON UNIT  53 AT TIME STEP 90, STRESS PERIOD   3
 UBDSV1 SAVING "FLOW LOWER FACE " ON UNIT  53 AT TIME STEP 90, STRESS PERIOD   3
1
              HEAD IN LAYER   1 AT END OF TIME STEP  90 IN STRESS PERIOD    3
  ---------------------------------------------------------------------------

            1           2           3           4           5           6           7           8           9          10
 ........................................................................................................................
   1    9.999       9.437       8.814       8.085       7.226       6.217       5.006       3.557       1.875      1.6374E-03
   2    9.999       9.404       8.739       7.961       7.068       6.087       4.923       3.512       1.855      1.6190E-03
   3    9.999       9.340       8.586       7.682       6.675       5.797       4.754       3.426       1.820      1.5861E-03
   4    9.999       9.262       8.377       7.213       5.790       5.307       4.524       3.325       1.782      1.5502E-03
   5    9.998       9.217       8.220       6.659       2.844       4.720       4.351       3.267       1.763      1.5324E-03
   6    9.999       9.264       8.381       7.218       5.796       5.312       4.528       3.328       1.783      1.5515E-03
   7    9.999       9.345       8.596       7.696       6.690       5.812       4.766       3.434       1.824      1.5897E-03
   8    9.999       9.416       8.762       7.993       7.104       6.120       4.949       3.529       1.863      1.6268E-03
   9    9.999       9.462       8.863       8.153       7.303       6.287       5.060       3.592       1.891      1.6532E-03
  10    9.999       9.484       8.908       8.222       7.385       6.359       5.111       3.622       1.905      1.6662E-03
1
              HEAD IN LAYER   2 AT END OF TIME STEP  90 IN STRESS PERIOD    3
  ---------------------------------------------------------------------------

            1           2           3           4           5           6           7           8           9          10
 ........................................................................................................................
   1    9.999       9.432       8.805       8.073       7.211       6.202       4.993       3.546       1.867      3.9038E-03
   2    9.999       9.399       8.729       7.947       7.053       6.072       4.909       3.500       1.848      3.8626E-03
   3    9.999       9.334       8.576       7.668       6.658       5.781       4.739       3.415       1.813      3.7890E-03
   4    9.999       9.256       8.365       7.197       5.773       5.291       4.509       3.313       1.774      3.7086E-03
   5    9.998       9.210       8.208       6.641       3.189       4.706       4.336       3.255       1.756      3.6690E-03
   6    9.999       9.258       8.369       7.202       5.779       5.296       4.513       3.316       1.776      3.7117E-03
   7    9.999       9.340       8.586       7.682       6.674       5.796       4.751       3.422       1.817      3.7972E-03
   8    9.999       9.411       8.753       7.980       7.089       6.105       4.935       3.518       1.856      3.8804E-03
   9    9.999       9.457       8.854       8.142       7.289       6.273       5.047       3.581       1.884      3.9392E-03
  10    9.999       9.479       8.900       8.211       7.371       6.346       5.098       3.611       1.898      3.9683E-03
1
              HEAD IN LAYER   3 AT END OF TIME STEP  90 IN STRESS PERIOD    3
  ---------------------------------------------------------------------------

            1           2           3           4           5           6           7           8           9          10
 ........................................................................................................................
   1    9.999       9.429       8.798       8.062       7.199       6.188       4.979       3.535       1.859      4.3801E-03
   2    9.999       9.394       8.721       7.937       7.039       6.058       4.895       3.489       1.839      4.3337E-03
   3    9.999       9.330       8.567       7.656       6.644       5.766       4.725       3.403       1.804      4.2510E-03
   4    9.999       9.251       8.356       7.184       5.763       5.275       4.494       3.301       1.766      4.1607E-03
   5    9.998       9.205       8.199       6.631       3.535       4.697       4.322       3.243       1.747      4.1163E-03
   6    9.999       9.253       8.360       7.189       5.769       5.281       4.499       3.304       1.767      4.1643E-03
   7    9.999       9.335       8.578       7.670       6.660       5.781       4.737       3.411       1.808      4.2603E-03
   8    9.999       9.407       8.745       7.970       7.077       6.092       4.922       3.506       1.848      4.3540E-03
   9    9.999       9.454       8.847       8.132       7.278       6.261       5.035       3.570       1.876      4.4202E-03
  10    9.999       9.476       8.894       8.202       7.361       6.334       5.086       3.601       1.890      4.4531E-03
1
              HEAD IN LAYER   4 AT END OF TIME STEP  90 IN STRESS PERIOD    3
  ---------------------------------------------------------------------------

            1           2           3           4           5           6           7           8           9          10
 ........................................................................................................................
   1    9.999       9.426       8.793       8.055       7.190       6.179       4.971       3.527       1.854      4.4299E-03
   2    9.999       9.392       8.716       7.929       7.031       6.048       4.886       3.481       1.834      4.3828E-03
   3    9.999       9.327       8.562       7.648       6.635       5.756       4.716       3.395       1.799      4.2987E-03
   4    9.998       9.248       8.350       7.175       5.759       5.265       4.485       3.293       1.760      4.2071E-03
   5    9.998       9.202       8.192       6.627       3.755       4.694       4.313       3.235       1.741      4.1621E-03
   6    9.999       9.250       8.354       7.181       5.765       5.271       4.489       3.296       1.762      4.2107E-03
   7    9.999       9.333       8.572       7.663       6.651       5.772       4.728       3.403       1.803      4.3083E-03
   8    9.999       9.404       8.741       7.963       7.068       6.083       4.913       3.499       1.843      4.4036E-03
   9    9.999       9.451       8.843       8.126       7.270       6.253       5.027       3.563       1.871      4.4710E-03
  10    9.999       9.474       8.889       8.196       7.353       6.326       5.078       3.594       1.885      4.5045E-03
1
              HEAD IN LAYER   5 AT END OF TIME STEP  90 IN STRESS PERIOD    3
  ---------------------------------------------------------------------------

            1           2           3           4           5           6           7           8           9          10
 ........................................................................................................................
   1    9.999       9.425       8.790       8.052       7.186       6.175       4.966       3.523       1.851      4.4313E-03
   2    9.999       9.390       8.714       7.926       7.026       6.044       4.882       3.477       1.831      4.3840E-03
   3    9.999       9.325       8.559       7.644       6.630       5.751       4.711       3.391       1.796      4.2997E-03
   4    9.998       9.247       8.347       7.171       5.758       5.261       4.480       3.289       1.757      4.2078E-03
   5    9.998       9.201       8.189       6.626       3.861       4.694       4.308       3.231       1.739      4.1627E-03
   6    9.999       9.249       8.351       7.177       5.764       5.266       4.484       3.292       1.759      4.2115E-03
   7    9.999       9.331       8.570       7.659       6.647       5.767       4.723       3.399       1.800      4.3093E-03
   8    9.999       9.403       8.738       7.959       7.064       6.079       4.909       3.495       1.840      4.4050E-03
   9    9.999       9.450       8.841       8.123       7.266       6.248       5.022       3.559       1.868      4.4727E-03
  10    9.999       9.473       8.887       8.193       7.350       6.322       5.074       3.590       1.882      4.5063E-03

 HEAD WILL BE SAVED ON UNIT   51 AT END OF TIME STEP   90, STRESS PERIOD    3

 DRAWDOWN WILL BE SAVED ON UNIT   52 AT END OF TIME STEP   90, STRESS PERIOD    3
1
  VOLUMETRIC BUDGET FOR ENTIRE MODEL AT END OF TIME STEP   90, STRESS PERIOD   3
  ------------------------------------------------------------------------------

     CUMULATIVE VOLUMES      L**3       RATES FOR THIS TIME STEP      L**3/T
     ------------------                 ------------------------

           IN:                                      IN:
           ---                                      ---
             STORAGE =      440646.0938               STORAGE =        1035.4434
       CONSTANT HEAD =           0.0000         CONSTANT HEAD =           0.0000
               WELLS =           0.0000                 WELLS =           0.0000
     HEAD DEP BOUNDS =       23277.5898       HEAD DEP BOUNDS =         384.1084

            TOTAL IN =      463923.6875              TOTAL IN =        1419.5518

          OUT:                                     OUT:
          ----                                     ----
             STORAGE =           0.0000               STORAGE =           0.0000
       CONSTANT HEAD =           0.0000         CONSTANT HEAD =           0.0000
               WELLS =       45000.0000                 WELLS =         500.0000
     HEAD DEP BOUNDS =      418924.6250       HEAD DEP BOUNDS =         919.5259

           TOTAL OUT =      463924.6250             TOTAL OUT =        1419.5259

            IN - OUT =          -0.9375              IN - OUT =       2.5879E-02

 PERCENT DISCREPANCY =          -0.00     PERCENT DISCREPANCY =           0.00






         TIME SUMMARY AT END OF TIME STEP   90 IN STRESS PERIOD    3
                    SECONDS     MINUTES      HOURS       DAYS        YEARS
                    -----------------------------------------------------------
   TIME STEP LENGTH  86400.      1440.0      24.000      1.0000     2.73785E-03
 STRESS PERIOD TIME 7.77600E+06 1.29600E+05  2160.0      90.000     0.24641    
         TOTAL TIME 1.65024E+07 2.75040E+05  4584.0      191.00     0.52293    
1
 
 SOLVING FOR HEAD 

 OUTPUT CONTROL FOR STRESS PERIOD    3   TIME STEP   91
    SAVE HEAD FOR ALL LAYERS
    SAVE DRAWDOWN FOR ALL LAYERS
    SAVE BUDGET
    PRINT HEAD FOR ALL LAYERS
    PRINT BUDGET
 UBDSV1 SAVING "         STORAGE" ON UNIT  53 AT TIME STEP 91, STRESS PERIOD   3
 UBDSV2 SAVING "   CONSTANT HEAD" ON UNIT  53 AT TIME STEP 91, STRESS PERIOD   3
 UBDSV1 SAVING "FLOW RIGHT FACE " ON UNIT  53 AT TIME STEP 91, STRESS PERIOD   3
 UBDSV1 SAVING "FLOW FRONT FACE " ON UNIT  53 AT TIME STEP 91, STRESS PERIOD   3
 UBDSV1 SAVING "FLOW LOWER FACE " ON UNIT  53 AT TIME STEP 91, STRESS PERIOD   3
1
              HEAD IN LAYER   1 AT END OF TIME STEP  91 IN STRESS PERIOD    3
  ---------------------------------------------------------------------------

            1           2           3           4           5           6           7           8           9          10
 ........................................................................................................................
   1    9.999       9.432       8.805       8.072       7.210       6.201       4.991       3.546       1.868      1.6313E-03
   2    9.999       9.399       8.729       7.947       7.052       6.070       4.907       3.500       1.848      1.6127E-03
   3    9.999       9.334       8.575       7.667       6.657       5.779       4.738       3.414       1.813      1.5795E-03
   4    9.999       9.256       8.365       7.197       5.771       5.288       4.506       3.312       1.775      1.5434E-03
   5    9.998       9.211       8.209       6.643       2.823       4.700       4.334       3.254       1.756      1.5255E-03
   6    9.999       9.258       8.369       7.202       5.777       5.293       4.511       3.315       1.776      1.5448E-03
   7    9.999       9.340       8.586       7.682       6.673       5.794       4.749       3.422       1.817      1.5832E-03
   8    9.999       9.411       8.753       7.979       7.088       6.104       4.934       3.517       1.857      1.6208E-03
   9    9.999       9.457       8.854       8.141       7.289       6.272       5.046       3.581       1.885      1.6473E-03
  10    9.999       9.479       8.900       8.211       7.371       6.345       5.098       3.611       1.899      1.6606E-03
1
              HEAD IN LAYER   2 AT END OF TIME STEP  91 IN STRESS PERIOD    3
  ---------------------------------------------------------------------------

            1           2           3           4           5           6           7           8           9          10
 ........................................................................................................................
   1    9.999       9.427       8.795       8.059       7.196       6.186       4.978       3.534       1.861      3.8902E-03
   2    9.999       9.393       8.719       7.934       7.036       6.055       4.893       3.488       1.841      3.8487E-03
   3    9.999       9.329       8.565       7.653       6.641       5.763       4.723       3.402       1.806      3.7744E-03
   4    9.999       9.250       8.354       7.181       5.754       5.272       4.492       3.300       1.767      3.6935E-03
   5    9.998       9.204       8.197       6.625       3.169       4.686       4.319       3.242       1.748      3.6536E-03
   6    9.999       9.252       8.358       7.187       5.760       5.277       4.496       3.303       1.769      3.6966E-03
   7    9.999       9.334       8.576       7.668       6.657       5.778       4.735       3.410       1.810      3.7828E-03
   8    9.999       9.406       8.743       7.967       7.073       6.089       4.920       3.506       1.850      3.8669E-03
   9    9.999       9.453       8.845       8.130       7.275       6.258       5.033       3.570       1.878      3.9264E-03
  10    9.999       9.475       8.892       8.200       7.358       6.331       5.085       3.601       1.892      3.9559E-03
1
              HEAD IN LAYER   3 AT END OF TIME STEP  91 IN STRESS PERIOD    3
  ---------------------------------------------------------------------------

            1           2           3           4           5           6           7           8           9          10
 ........................................................................................................................
   1    9.999       9.424       8.788       8.049       7.183       6.172       4.965       3.523       1.853      4.3649E-03
   2    9.999       9.389       8.711       7.923       7.023       6.041       4.880       3.477       1.833      4.3182E-03
   3    9.999       9.324       8.556       7.641       6.627       5.748       4.709       3.390       1.797      4.2347E-03
   4    9.998       9.246       8.345       7.168       5.745       5.257       4.477       3.288       1.759      4.1439E-03
   5    9.998       9.200       8.187       6.615       3.515       4.678       4.305       3.230       1.740      4.0993E-03
   6    9.998       9.248       8.349       7.174       5.751       5.262       4.482       3.291       1.760      4.1475E-03
   7    9.999       9.330       8.568       7.656       6.644       5.764       4.721       3.398       1.801      4.2443E-03
   8    9.999       9.402       8.736       7.956       7.061       6.076       4.907       3.495       1.842      4.3390E-03
   9    9.999       9.449       8.839       8.120       7.263       6.246       5.021       3.559       1.870      4.4061E-03
  10    9.999       9.472       8.885       8.191       7.347       6.319       5.073       3.590       1.884      4.4394E-03
1
              HEAD IN LAYER   4 AT END OF TIME STEP  91 IN STRESS PERIOD    3
  ---------------------------------------------------------------------------

            1           2           3           4           5           6           7           8           9          10
 ........................................................................................................................
   1    9.999       9.421       8.783       8.042       7.175       6.163       4.956       3.516       1.847      4.4146E-03
   2    9.999       9.387       8.706       7.915       7.014       6.031       4.871       3.469       1.827      4.3671E-03
   3    9.999       9.321       8.551       7.633       6.617       5.738       4.700       3.382       1.792      4.2823E-03
   4    9.998       9.242       8.339       7.160       5.741       5.247       4.468       3.280       1.753      4.1901E-03
   5    9.998       9.196       8.181       6.611       3.735       4.675       4.295       3.222       1.734      4.1449E-03
   6    9.998       9.245       8.343       7.165       5.747       5.253       4.472       3.283       1.755      4.1939E-03
   7    9.999       9.327       8.562       7.648       6.634       5.754       4.712       3.391       1.796      4.2922E-03
   8    9.999       9.399       8.731       7.950       7.053       6.067       4.899       3.487       1.836      4.3885E-03
   9    9.999       9.447       8.834       8.114       7.256       6.238       5.013       3.552       1.865      4.4568E-03
  10    9.999       9.469       8.881       8.185       7.340       6.311       5.065       3.583       1.879      4.4907E-03
1
              HEAD IN LAYER   5 AT END OF TIME STEP  91 IN STRESS PERIOD    3
  ---------------------------------------------------------------------------

            1           2           3           4           5           6           7           8           9          10
 ........................................................................................................................
   1    9.999       9.420       8.781       8.039       7.171       6.159       4.951       3.512       1.845      4.4160E-03
   2    9.999       9.385       8.704       7.912       7.010       6.027       4.866       3.465       1.825      4.3683E-03
   3    9.999       9.320       8.548       7.629       6.613       5.733       4.695       3.378       1.789      4.2833E-03
   4    9.998       9.241       8.336       7.156       5.739       5.242       4.463       3.276       1.750      4.1908E-03
   5    9.998       9.195       8.178       6.610       3.842       4.674       4.291       3.218       1.731      4.1455E-03
   6    9.998       9.243       8.340       7.161       5.746       5.248       4.468       3.279       1.752      4.1947E-03
   7    9.999       9.326       8.559       7.645       6.630       5.749       4.708       3.387       1.793      4.2933E-03
   8    9.999       9.398       8.729       7.946       7.049       6.063       4.894       3.484       1.834      4.3899E-03
   9    9.999       9.446       8.832       8.111       7.252       6.233       5.009       3.549       1.862      4.4584E-03
  10    9.999       9.468       8.879       8.182       7.336       6.307       5.061       3.580       1.877      4.4925E-03

 HEAD WILL BE SAVED ON UNIT   51 AT END OF TIME STEP   91, STRESS PERIOD    3

 DRAWDOWN WILL BE SAVED ON UNIT   52 AT END OF TIME STEP   91, STRESS PERIOD    3
1
  VOLUMETRIC BUDGET FOR ENTIRE MODEL AT END OF TIME STEP   91, STRESS PERIOD   3
  ------------------------------------------------------------------------------

     CUMULATIVE VOLUMES      L**3       RATES FOR THIS TIME STEP      L**3/T
     ------------------                 ------------------------

           IN:                                      IN:
           ---                                      ---
             STORAGE =      441675.0312               STORAGE =        1028.9521
       CONSTANT HEAD =           0.0000         CONSTANT HEAD =           0.0000
               WELLS =           0.0000                 WELLS =           0.0000
     HEAD DEP BOUNDS =       23664.8008       HEAD DEP BOUNDS =         387.2115

            TOTAL IN =      465339.8438              TOTAL IN =        1416.1636

          OUT:                                     OUT:
          ----                                     ----
             STORAGE =           0.0000               STORAGE =           0.0000
       CONSTANT HEAD =           0.0000         CONSTANT HEAD =           0.0000
               WELLS =       45500.0000                 WELLS =         500.0000
     HEAD DEP BOUNDS =      419840.7812       HEAD DEP BOUNDS =         916.1454

           TOTAL OUT =      465340.7812             TOTAL OUT =        1416.1455

            IN - OUT =          -0.9375              IN - OUT =       1.8066E-02

 PERCENT DISCREPANCY =          -0.00     PERCENT DISCREPANCY =           0.00






         TIME SUMMARY AT END OF TIME STEP   91 IN STRESS PERIOD    3
                    SECONDS     MINUTES      HOURS       DAYS        YEARS
                    -----------------------------------------------------------
   TIME STEP LENGTH  86400.      1440.0      24.000      1.0000     2.73785E-03
 STRESS PERIOD TIME 7.86240E+06 1.31040E+05  2184.0      91.000     0.24914    
         TOTAL TIME 1.65888E+07 2.76480E+05  4608.0      192.00     0.52567    
1
 
 SOLVING FOR HEAD 

 OUTPUT CONTROL FOR STRESS PERIOD    3   TIME STEP   92
    SAVE HEAD FOR ALL LAYERS
    SAVE DRAWDOWN FOR ALL LAYERS
    SAVE BUDGET
    PRINT HEAD FOR ALL LAYERS
    PRINT BUDGET
 UBDSV1 SAVING "         STORAGE" ON UNIT  53 AT TIME STEP 92, STRESS PERIOD   3
 UBDSV2 SAVING "   CONSTANT HEAD" ON UNIT  53 AT TIME STEP 92, STRESS PERIOD   3
 UBDSV1 SAVING "FLOW RIGHT FACE " ON UNIT  53 AT TIME STEP 92, STRESS PERIOD   3
 UBDSV1 SAVING "FLOW FRONT FACE " ON UNIT  53 AT TIME STEP 92, STRESS PERIOD   3
 UBDSV1 SAVING "FLOW LOWER FACE " ON UNIT  53 AT TIME STEP 92, STRESS PERIOD   3
1
              HEAD IN LAYER   1 AT END OF TIME STEP  92 IN STRESS PERIOD    3
  ---------------------------------------------------------------------------

            1           2           3           4           5           6           7           8           9          10
 ........................................................................................................................
   1    9.999       9.427       8.795       8.059       7.195       6.184       4.977       3.534       1.862      1.6253E-03
   2    9.999       9.393       8.719       7.933       7.035       6.053       4.892       3.488       1.842      1.6064E-03
   3    9.999       9.329       8.565       7.652       6.640       5.761       4.721       3.401       1.806      1.5729E-03
   4    9.999       9.250       8.354       7.181       5.752       5.269       4.489       3.299       1.767      1.5365E-03
   5    9.998       9.205       8.197       6.627       2.803       4.681       4.316       3.241       1.748      1.5187E-03
   6    9.999       9.253       8.358       7.187       5.759       5.275       4.494       3.302       1.769      1.5380E-03
   7    9.999       9.334       8.576       7.667       6.656       5.776       4.734       3.409       1.810      1.5768E-03
   8    9.999       9.406       8.743       7.966       7.073       6.088       4.919       3.506       1.850      1.6148E-03
   9    9.999       9.453       8.845       8.129       7.274       6.257       5.033       3.570       1.879      1.6417E-03
  10    9.999       9.475       8.892       8.199       7.357       6.330       5.084       3.601       1.893      1.6550E-03
1
              HEAD IN LAYER   2 AT END OF TIME STEP  92 IN STRESS PERIOD    3
  ---------------------------------------------------------------------------

            1           2           3           4           5           6           7           8           9          10
 ........................................................................................................................
   1    9.999       9.422       8.786       8.046       7.180       6.169       4.963       3.523       1.854      3.8767E-03
   2    9.999       9.388       8.709       7.920       7.020       6.038       4.878       3.476       1.834      3.8347E-03
   3    9.999       9.323       8.554       7.638       6.624       5.745       4.707       3.390       1.799      3.7599E-03
   4    9.998       9.244       8.343       7.166       5.736       5.253       4.475       3.287       1.760      3.6783E-03
   5    9.998       9.199       8.185       6.609       3.148       4.667       4.302       3.229       1.741      3.6383E-03
   6    9.999       9.247       8.347       7.171       5.742       5.259       4.479       3.290       1.762      3.6817E-03
   7    9.999       9.329       8.565       7.653       6.640       5.761       4.719       3.398       1.803      3.7685E-03
   8    9.999       9.401       8.734       7.954       7.058       6.073       4.905       3.495       1.843      3.8535E-03
   9    9.999       9.448       8.837       8.117       7.261       6.243       5.020       3.559       1.872      3.9138E-03
  10    9.999       9.471       8.883       8.188       7.344       6.317       5.072       3.591       1.886      3.9437E-03
1
              HEAD IN LAYER   3 AT END OF TIME STEP  92 IN STRESS PERIOD    3
  ---------------------------------------------------------------------------

            1           2           3           4           5           6           7           8           9          10
 ........................................................................................................................
   1    9.999       9.419       8.778       8.036       7.167       6.156       4.950       3.512       1.846      4.3499E-03
   2    9.999       9.384       8.701       7.909       7.007       6.024       4.864       3.465       1.826      4.3027E-03
   3    9.999       9.319       8.546       7.626       6.609       5.730       4.693       3.378       1.791      4.2186E-03
   4    9.998       9.240       8.334       7.153       5.726       5.238       4.460       3.275       1.752      4.1271E-03
   5    9.998       9.194       8.176       6.599       3.495       4.659       4.288       3.217       1.733      4.0823E-03
   6    9.998       9.242       8.338       7.159       5.733       5.244       4.465       3.278       1.753      4.1309E-03
   7    9.999       9.325       8.557       7.642       6.627       5.746       4.706       3.386       1.795      4.2285E-03
   8    9.999       9.397       8.727       7.943       7.046       6.060       4.893       3.483       1.835      4.3241E-03
   9    9.999       9.445       8.830       8.108       7.249       6.231       5.007       3.549       1.864      4.3920E-03
  10    9.999       9.467       8.877       8.179       7.333       6.305       5.060       3.580       1.878      4.4257E-03
1
              HEAD IN LAYER   4 AT END OF TIME STEP  92 IN STRESS PERIOD    3
  ---------------------------------------------------------------------------

            1           2           3           4           5           6           7           8           9          10
 ........................................................................................................................
   1    9.999       9.416       8.774       8.029       7.159       6.147       4.941       3.504       1.841      4.3995E-03
   2    9.999       9.381       8.696       7.902       6.998       6.015       4.856       3.457       1.821      4.3515E-03
   3    9.999       9.316       8.540       7.618       6.600       5.721       4.684       3.370       1.785      4.2660E-03
   4    9.998       9.237       8.328       7.144       5.722       5.228       4.451       3.267       1.746      4.1732E-03
   5    9.998       9.190       8.170       6.595       3.715       4.656       4.278       3.209       1.727      4.1278E-03
   6    9.998       9.239       8.332       7.150       5.729       5.234       4.456       3.270       1.748      4.1771E-03
   7    9.999       9.322       8.552       7.634       6.618       5.737       4.697       3.379       1.789      4.2762E-03
   8    9.999       9.395       8.722       7.937       7.037       6.051       4.884       3.476       1.830      4.3734E-03
   9    9.999       9.442       8.825       8.102       7.242       6.223       4.999       3.542       1.859      4.4426E-03
  10    9.999       9.465       8.873       8.173       7.326       6.297       5.052       3.573       1.873      4.4770E-03
1
              HEAD IN LAYER   5 AT END OF TIME STEP  92 IN STRESS PERIOD    3
  ---------------------------------------------------------------------------

            1           2           3           4           5           6           7           8           9          10
 ........................................................................................................................
   1    9.999       9.415       8.771       8.025       7.155       6.143       4.937       3.500       1.838      4.4008E-03
   2    9.999       9.380       8.694       7.898       6.994       6.010       4.851       3.453       1.818      4.3527E-03
   3    9.999       9.314       8.538       7.615       6.596       5.716       4.679       3.366       1.782      4.2670E-03
   4    9.998       9.235       8.325       7.140       5.721       5.223       4.446       3.263       1.743      4.1740E-03
   5    9.998       9.189       8.166       6.594       3.822       4.655       4.274       3.205       1.724      4.1285E-03
   6    9.998       9.237       8.329       7.146       5.728       5.229       4.451       3.266       1.745      4.1779E-03
   7    9.999       9.320       8.549       7.630       6.613       5.732       4.692       3.375       1.787      4.2773E-03
   8    9.999       9.393       8.719       7.933       7.033       6.047       4.880       3.472       1.827      4.3749E-03
   9    9.999       9.441       8.823       8.099       7.238       6.219       4.995       3.538       1.856      4.4442E-03
  10    9.999       9.464       8.871       8.170       7.322       6.293       5.048       3.570       1.871      4.4788E-03

 HEAD WILL BE SAVED ON UNIT   51 AT END OF TIME STEP   92, STRESS PERIOD    3

 DRAWDOWN WILL BE SAVED ON UNIT   52 AT END OF TIME STEP   92, STRESS PERIOD    3
1
  VOLUMETRIC BUDGET FOR ENTIRE MODEL AT END OF TIME STEP   92, STRESS PERIOD   3
  ------------------------------------------------------------------------------

     CUMULATIVE VOLUMES      L**3       RATES FOR THIS TIME STEP      L**3/T
     ------------------                 ------------------------

           IN:                                      IN:
           ---                                      ---
             STORAGE =      442697.5312               STORAGE =        1022.5121
       CONSTANT HEAD =           0.0000         CONSTANT HEAD =           0.0000
               WELLS =           0.0000                 WELLS =           0.0000
     HEAD DEP BOUNDS =       24055.0898       HEAD DEP BOUNDS =         390.2900

            TOTAL IN =      466752.6250              TOTAL IN =        1412.8020

          OUT:                                     OUT:
          ----                                     ----
             STORAGE =           0.0000               STORAGE =           0.0000
       CONSTANT HEAD =           0.0000         CONSTANT HEAD =           0.0000
               WELLS =       46000.0000                 WELLS =         500.0000
     HEAD DEP BOUNDS =      420753.5625       HEAD DEP BOUNDS =         912.7867

           TOTAL OUT =      466753.5625             TOTAL OUT =        1412.7866

            IN - OUT =          -0.9375              IN - OUT =       1.5381E-02

 PERCENT DISCREPANCY =          -0.00     PERCENT DISCREPANCY =           0.00






         TIME SUMMARY AT END OF TIME STEP   92 IN STRESS PERIOD    3
                    SECONDS     MINUTES      HOURS       DAYS        YEARS
                    -----------------------------------------------------------
   TIME STEP LENGTH  86400.      1440.0      24.000      1.0000     2.73785E-03
 STRESS PERIOD TIME 7.94880E+06 1.32480E+05  2208.0      92.000     0.25188    
         TOTAL TIME 1.66752E+07 2.77920E+05  4632.0      193.00     0.52841    
1
 
 SOLVING FOR HEAD 

 OUTPUT CONTROL FOR STRESS PERIOD    3   TIME STEP   93
    SAVE HEAD FOR ALL LAYERS
    SAVE DRAWDOWN FOR ALL LAYERS
    SAVE BUDGET
    PRINT HEAD FOR ALL LAYERS
    PRINT BUDGET
 UBDSV1 SAVING "         STORAGE" ON UNIT  53 AT TIME STEP 93, STRESS PERIOD   3
 UBDSV2 SAVING "   CONSTANT HEAD" ON UNIT  53 AT TIME STEP 93, STRESS PERIOD   3
 UBDSV1 SAVING "FLOW RIGHT FACE " ON UNIT  53 AT TIME STEP 93, STRESS PERIOD   3
 UBDSV1 SAVING "FLOW FRONT FACE " ON UNIT  53 AT TIME STEP 93, STRESS PERIOD   3
 UBDSV1 SAVING "FLOW LOWER FACE " ON UNIT  53 AT TIME STEP 93, STRESS PERIOD   3
1
              HEAD IN LAYER   1 AT END OF TIME STEP  93 IN STRESS PERIOD    3
  ---------------------------------------------------------------------------

            1           2           3           4           5           6           7           8           9          10
 ........................................................................................................................
   1    9.999       9.422       8.785       8.045       7.179       6.168       4.962       3.523       1.855      1.6191E-03
   2    9.999       9.388       8.709       7.919       7.019       6.036       4.877       3.476       1.835      1.6002E-03
   3    9.999       9.323       8.554       7.638       6.622       5.743       4.705       3.389       1.799      1.5664E-03
   4    9.999       9.245       8.343       7.166       5.734       5.250       4.472       3.286       1.760      1.5298E-03
   5    9.998       9.199       8.186       6.611       2.783       4.661       4.299       3.228       1.741      1.5119E-03
   6    9.999       9.247       8.347       7.171       5.740       5.256       4.477       3.289       1.762      1.5313E-03
   7    9.999       9.329       8.565       7.653       6.639       5.759       4.718       3.397       1.803      1.5703E-03
   8    9.999       9.401       8.734       7.953       7.057       6.072       4.904       3.494       1.844      1.6087E-03
   9    9.999       9.448       8.836       8.117       7.260       6.242       5.019       3.559       1.873      1.6360E-03
  10    9.999       9.471       8.883       8.188       7.343       6.316       5.071       3.591       1.887      1.6494E-03
1
              HEAD IN LAYER   2 AT END OF TIME STEP  93 IN STRESS PERIOD    3
  ---------------------------------------------------------------------------

            1           2           3           4           5           6           7           8           9          10
 ........................................................................................................................
   1    9.999       9.417       8.776       8.033       7.164       6.153       4.948       3.512       1.848      3.8633E-03
   2    9.999       9.383       8.699       7.906       7.004       6.021       4.863       3.465       1.828      3.8209E-03
   3    9.999       9.318       8.544       7.623       6.606       5.727       4.691       3.377       1.792      3.7454E-03
   4    9.998       9.239       8.332       7.150       5.717       5.234       4.458       3.274       1.753      3.6634E-03
   5    9.998       9.193       8.174       6.593       3.128       4.648       4.285       3.216       1.734      3.6232E-03
   6    9.998       9.241       8.336       7.156       5.724       5.240       4.463       3.278       1.755      3.6668E-03
   7    9.999       9.324       8.555       7.639       6.624       5.743       4.704       3.386       1.796      3.7544E-03
   8    9.999       9.396       8.724       7.941       7.043       6.057       4.891       3.483       1.837      3.8402E-03
   9    9.999       9.444       8.828       8.105       7.246       6.229       5.006       3.549       1.866      3.9012E-03
  10    9.999       9.466       8.875       8.177       7.330       6.303       5.059       3.580       1.880      3.9315E-03
1
              HEAD IN LAYER   3 AT END OF TIME STEP  93 IN STRESS PERIOD    3
  ---------------------------------------------------------------------------

            1           2           3           4           5           6           7           8           9          10
 ........................................................................................................................
   1    9.999       9.414       8.769       8.022       7.152       6.140       4.935       3.500       1.840      4.3349E-03
   2    9.999       9.379       8.691       7.895       6.991       6.007       4.849       3.453       1.820      4.2873E-03
   3    9.999       9.313       8.535       7.612       6.592       5.713       4.677       3.366       1.784      4.2025E-03
   4    9.998       9.234       8.323       7.137       5.708       5.219       4.444       3.262       1.745      4.1105E-03
   5    9.998       9.188       8.165       6.584       3.475       4.640       4.271       3.204       1.725      4.0655E-03
   6    9.998       9.236       8.327       7.143       5.715       5.225       4.449       3.266       1.746      4.1144E-03
   7    9.999       9.319       8.547       7.628       6.610       5.729       4.690       3.374       1.788      4.2128E-03
   8    9.999       9.392       8.717       7.930       7.030       6.044       4.878       3.472       1.829      4.3093E-03
   9    9.999       9.440       8.821       8.096       7.235       6.216       4.994       3.538       1.858      4.3780E-03
  10    9.999       9.463       8.869       8.168       7.320       6.291       5.047       3.570       1.873      4.4122E-03
1
              HEAD IN LAYER   4 AT END OF TIME STEP  93 IN STRESS PERIOD    3
  ---------------------------------------------------------------------------

            1           2           3           4           5           6           7           8           9          10
 ........................................................................................................................
   1    9.999       9.411       8.764       8.016       7.144       6.131       4.926       3.493       1.835      4.3844E-03
   2    9.999       9.376       8.686       7.888       6.982       5.998       4.840       3.446       1.814      4.3360E-03
   3    9.999       9.310       8.530       7.604       6.583       5.703       4.668       3.358       1.778      4.2498E-03
   4    9.998       9.231       8.317       7.129       5.704       5.209       4.434       3.254       1.739      4.1564E-03
   5    9.998       9.185       8.158       6.580       3.695       4.637       4.261       3.196       1.720      4.1108E-03
   6    9.998       9.233       8.321       7.135       5.711       5.216       4.439       3.258       1.741      4.1605E-03
   7    9.999       9.317       8.542       7.620       6.601       5.720       4.681       3.367       1.783      4.2604E-03
   8    9.999       9.390       8.712       7.924       7.022       6.035       4.869       3.465       1.824      4.3585E-03
   9    9.999       9.438       8.817       8.090       7.227       6.208       4.986       3.531       1.853      4.4284E-03
  10    9.999       9.461       8.865       8.162       7.312       6.283       5.039       3.563       1.868      4.4633E-03
1
              HEAD IN LAYER   5 AT END OF TIME STEP  93 IN STRESS PERIOD    3
  ---------------------------------------------------------------------------

            1           2           3           4           5           6           7           8           9          10
 ........................................................................................................................
   1    9.999       9.410       8.762       8.012       7.140       6.126       4.922       3.489       1.832      4.3858E-03
   2    9.999       9.375       8.684       7.884       6.978       5.994       4.836       3.442       1.812      4.3372E-03
   3    9.999       9.309       8.527       7.600       6.579       5.698       4.663       3.354       1.776      4.2509E-03
   4    9.998       9.229       8.314       7.125       5.703       5.205       4.430       3.250       1.736      4.1572E-03
   5    9.998       9.183       8.155       6.578       3.803       4.636       4.257       3.192       1.717      4.1115E-03
   6    9.998       9.232       8.318       7.131       5.710       5.211       4.435       3.254       1.738      4.1613E-03
   7    9.999       9.315       8.539       7.616       6.596       5.715       4.677       3.363       1.780      4.2615E-03
   8    9.999       9.388       8.710       7.920       7.018       6.031       4.865       3.461       1.821      4.3599E-03
   9    9.999       9.437       8.815       8.087       7.224       6.204       4.982       3.527       1.850      4.4301E-03
  10    9.999       9.460       8.863       8.159       7.309       6.279       5.035       3.559       1.865      4.4651E-03

 HEAD WILL BE SAVED ON UNIT   51 AT END OF TIME STEP   93, STRESS PERIOD    3

 DRAWDOWN WILL BE SAVED ON UNIT   52 AT END OF TIME STEP   93, STRESS PERIOD    3
1
  VOLUMETRIC BUDGET FOR ENTIRE MODEL AT END OF TIME STEP   93, STRESS PERIOD   3
  ------------------------------------------------------------------------------

     CUMULATIVE VOLUMES      L**3       RATES FOR THIS TIME STEP      L**3/T
     ------------------                 ------------------------

           IN:                                      IN:
           ---                                      ---
             STORAGE =      443713.6250               STORAGE =        1016.1085
       CONSTANT HEAD =           0.0000         CONSTANT HEAD =           0.0000
               WELLS =           0.0000                 WELLS =           0.0000
     HEAD DEP BOUNDS =       24448.4375       HEAD DEP BOUNDS =         393.3477

            TOTAL IN =      468162.0625              TOTAL IN =        1409.4563

          OUT:                                     OUT:
          ----                                     ----
             STORAGE =           0.0000               STORAGE =           0.0000
       CONSTANT HEAD =           0.0000         CONSTANT HEAD =           0.0000
               WELLS =       46500.0000                 WELLS =         500.0000
     HEAD DEP BOUNDS =      421663.0000       HEAD DEP BOUNDS =         909.4482

           TOTAL OUT =      468163.0000             TOTAL OUT =        1409.4482

            IN - OUT =          -0.9375              IN - OUT =       8.0566E-03

 PERCENT DISCREPANCY =          -0.00     PERCENT DISCREPANCY =           0.00






         TIME SUMMARY AT END OF TIME STEP   93 IN STRESS PERIOD    3
                    SECONDS     MINUTES      HOURS       DAYS        YEARS
                    -----------------------------------------------------------
   TIME STEP LENGTH  86400.      1440.0      24.000      1.0000     2.73785E-03
 STRESS PERIOD TIME 8.03520E+06 1.33920E+05  2232.0      93.000     0.25462    
         TOTAL TIME 1.67616E+07 2.79360E+05  4656.0      194.00     0.53114    
1
 
 SOLVING FOR HEAD 

 OUTPUT CONTROL FOR STRESS PERIOD    3   TIME STEP   94
    SAVE HEAD FOR ALL LAYERS
    SAVE DRAWDOWN FOR ALL LAYERS
    SAVE BUDGET
    PRINT HEAD FOR ALL LAYERS
    PRINT BUDGET
 UBDSV1 SAVING "         STORAGE" ON UNIT  53 AT TIME STEP 94, STRESS PERIOD   3
 UBDSV2 SAVING "   CONSTANT HEAD" ON UNIT  53 AT TIME STEP 94, STRESS PERIOD   3
 UBDSV1 SAVING "FLOW RIGHT FACE " ON UNIT  53 AT TIME STEP 94, STRESS PERIOD   3
 UBDSV1 SAVING "FLOW FRONT FACE " ON UNIT  53 AT TIME STEP 94, STRESS PERIOD   3
 UBDSV1 SAVING "FLOW LOWER FACE " ON UNIT  53 AT TIME STEP 94, STRESS PERIOD   3
1
              HEAD IN LAYER   1 AT END OF TIME STEP  94 IN STRESS PERIOD    3
  ---------------------------------------------------------------------------

            1           2           3           4           5           6           7           8           9          10
 ........................................................................................................................
   1    9.999       9.417       8.776       8.032       7.163       6.152       4.947       3.511       1.849      1.6131E-03
   2    9.999       9.383       8.699       7.905       7.003       6.020       4.861       3.464       1.828      1.5941E-03
   3    9.999       9.318       8.544       7.623       6.605       5.726       4.689       3.376       1.792      1.5600E-03
   4    9.999       9.239       8.332       7.150       5.716       5.231       4.456       3.273       1.753      1.5231E-03
   5    9.998       9.193       8.175       6.595       2.764       4.642       4.282       3.215       1.734      1.5051E-03
   6    9.999       9.241       8.336       7.156       5.722       5.238       4.460       3.276       1.755      1.5247E-03
   7    9.999       9.324       8.555       7.639       6.623       5.742       4.702       3.385       1.797      1.5641E-03
   8    9.999       9.396       8.724       7.940       7.042       6.056       4.890       3.483       1.838      1.6027E-03
   9    9.999       9.444       8.828       8.105       7.246       6.228       5.005       3.549       1.867      1.6303E-03
  10    9.999       9.466       8.875       8.176       7.330       6.302       5.058       3.580       1.881      1.6440E-03
1
              HEAD IN LAYER   2 AT END OF TIME STEP  94 IN STRESS PERIOD    3
  ---------------------------------------------------------------------------

            1           2           3           4           5           6           7           8           9          10
 ........................................................................................................................
   1    9.999       9.412       8.767       8.020       7.149       6.137       4.933       3.500       1.842      3.8499E-03
   2    9.999       9.378       8.689       7.892       6.988       6.004       4.847       3.453       1.821      3.8072E-03
   3    9.999       9.312       8.533       7.609       6.589       5.710       4.675       3.365       1.785      3.7311E-03
   4    9.998       9.233       8.321       7.135       5.699       5.215       4.441       3.262       1.746      3.6485E-03
   5    9.998       9.187       8.163       6.578       3.108       4.628       4.268       3.203       1.727      3.6082E-03
   6    9.998       9.235       8.325       7.141       5.706       5.222       4.446       3.265       1.748      3.6521E-03
   7    9.999       9.318       8.545       7.625       6.607       5.726       4.688       3.374       1.790      3.7403E-03
   8    9.999       9.391       8.715       7.928       7.027       6.041       4.876       3.472       1.831      3.8270E-03
   9    9.999       9.439       8.819       8.093       7.232       6.214       4.992       3.538       1.860      3.8887E-03
  10    9.999       9.462       8.867       8.165       7.317       6.288       5.046       3.570       1.875      3.9194E-03
1
              HEAD IN LAYER   3 AT END OF TIME STEP  94 IN STRESS PERIOD    3
  ---------------------------------------------------------------------------

            1           2           3           4           5           6           7           8           9          10
 ........................................................................................................................
   1    9.999       9.409       8.759       8.009       7.136       6.124       4.920       3.489       1.834      4.3200E-03
   2    9.999       9.374       8.682       7.881       6.975       5.991       4.834       3.442       1.813      4.2720E-03
   3    9.999       9.308       8.525       7.597       6.575       5.695       4.661       3.353       1.777      4.1866E-03
   4    9.998       9.228       8.312       7.122       5.690       5.201       4.427       3.250       1.738      4.0939E-03
   5    9.998       9.182       8.154       6.568       3.455       4.621       4.254       3.191       1.718      4.0487E-03
   6    9.998       9.231       8.316       7.128       5.697       5.207       4.432       3.253       1.739      4.0980E-03
   7    9.999       9.314       8.537       7.613       6.593       5.712       4.675       3.362       1.781      4.1971E-03
   8    9.999       9.387       8.708       7.917       7.015       6.028       4.864       3.461       1.823      4.2946E-03
   9    9.999       9.436       8.813       8.084       7.221       6.201       4.980       3.528       1.852      4.3641E-03
  10    9.999       9.459       8.861       8.156       7.306       6.277       5.034       3.560       1.867      4.3987E-03
1
              HEAD IN LAYER   4 AT END OF TIME STEP  94 IN STRESS PERIOD    3
  ---------------------------------------------------------------------------

            1           2           3           4           5           6           7           8           9          10
 ........................................................................................................................
   1    9.999       9.406       8.755       8.002       7.128       6.115       4.912       3.482       1.828      4.3693E-03
   2    9.999       9.371       8.677       7.874       6.966       5.982       4.825       3.434       1.808      4.3205E-03
   3    9.999       9.305       8.519       7.589       6.566       5.686       4.652       3.346       1.772      4.2338E-03
   4    9.998       9.225       8.306       7.114       5.686       5.191       4.418       3.242       1.732      4.1398E-03
   5    9.998       9.179       8.147       6.564       3.676       4.618       4.245       3.183       1.713      4.0940E-03
   6    9.998       9.228       8.311       7.120       5.693       5.198       4.423       3.245       1.734      4.1440E-03
   7    9.999       9.311       8.532       7.606       6.584       5.703       4.666       3.355       1.776      4.2446E-03
   8    9.999       9.385       8.703       7.911       7.007       6.019       4.855       3.454       1.818      4.3437E-03
   9    9.999       9.433       8.808       8.078       7.213       6.193       4.972       3.521       1.847      4.4144E-03
  10    9.999       9.457       8.856       8.150       7.299       6.269       5.026       3.553       1.862      4.4497E-03
1
              HEAD IN LAYER   5 AT END OF TIME STEP  94 IN STRESS PERIOD    3
  ---------------------------------------------------------------------------

            1           2           3           4           5           6           7           8           9          10
 ........................................................................................................................
   1    9.999       9.405       8.752       7.999       7.124       6.111       4.908       3.478       1.826      4.3708E-03
   2    9.999       9.370       8.674       7.871       6.962       5.977       4.821       3.430       1.805      4.3218E-03
   3    9.999       9.304       8.517       7.586       6.562       5.681       4.647       3.342       1.769      4.2348E-03
   4    9.998       9.224       8.303       7.110       5.685       5.186       4.413       3.238       1.729      4.1406E-03
   5    9.998       9.177       8.144       6.563       3.783       4.617       4.240       3.179       1.710      4.0947E-03
   6    9.998       9.226       8.308       7.116       5.692       5.193       4.418       3.241       1.731      4.1448E-03
   7    9.999       9.310       8.529       7.602       6.580       5.698       4.661       3.351       1.773      4.2458E-03
   8    9.999       9.384       8.701       7.907       7.003       6.015       4.851       3.450       1.815      4.3451E-03
   9    9.999       9.432       8.806       8.075       7.209       6.189       4.968       3.517       1.845      4.4161E-03
  10    9.999       9.455       8.854       8.147       7.295       6.265       5.022       3.549       1.859      4.4516E-03

 HEAD WILL BE SAVED ON UNIT   51 AT END OF TIME STEP   94, STRESS PERIOD    3

 DRAWDOWN WILL BE SAVED ON UNIT   52 AT END OF TIME STEP   94, STRESS PERIOD    3
1
  VOLUMETRIC BUDGET FOR ENTIRE MODEL AT END OF TIME STEP   94, STRESS PERIOD   3
  ------------------------------------------------------------------------------

     CUMULATIVE VOLUMES      L**3       RATES FOR THIS TIME STEP      L**3/T
     ------------------                 ------------------------

           IN:                                      IN:
           ---                                      ---
             STORAGE =      444723.3750               STORAGE =        1009.7364
       CONSTANT HEAD =           0.0000         CONSTANT HEAD =           0.0000
               WELLS =           0.0000                 WELLS =           0.0000
     HEAD DEP BOUNDS =       24844.8340       HEAD DEP BOUNDS =         396.3955

            TOTAL IN =      469568.2188              TOTAL IN =        1406.1320

          OUT:                                     OUT:
          ----                                     ----
             STORAGE =           0.0000               STORAGE =           0.0000
       CONSTANT HEAD =           0.0000         CONSTANT HEAD =           0.0000
               WELLS =       47000.0000                 WELLS =         500.0000
     HEAD DEP BOUNDS =      422569.1250       HEAD DEP BOUNDS =         906.1353

           TOTAL OUT =      469569.1250             TOTAL OUT =        1406.1353

            IN - OUT =          -0.9062              IN - OUT =      -3.2959E-03

 PERCENT DISCREPANCY =          -0.00     PERCENT DISCREPANCY =          -0.00






         TIME SUMMARY AT END OF TIME STEP   94 IN STRESS PERIOD    3
                    SECONDS     MINUTES      HOURS       DAYS        YEARS
                    -----------------------------------------------------------
   TIME STEP LENGTH  86400.      1440.0      24.000      1.0000     2.73785E-03
 STRESS PERIOD TIME 8.12160E+06 1.35360E+05  2256.0      94.000     0.25736    
         TOTAL TIME 1.68480E+07 2.80800E+05  4680.0      195.00     0.53388    
1
 
 SOLVING FOR HEAD 

 OUTPUT CONTROL FOR STRESS PERIOD    3   TIME STEP   95
    SAVE HEAD FOR ALL LAYERS
    SAVE DRAWDOWN FOR ALL LAYERS
    SAVE BUDGET
    PRINT HEAD FOR ALL LAYERS
    PRINT BUDGET
 UBDSV1 SAVING "         STORAGE" ON UNIT  53 AT TIME STEP 95, STRESS PERIOD   3
 UBDSV2 SAVING "   CONSTANT HEAD" ON UNIT  53 AT TIME STEP 95, STRESS PERIOD   3
 UBDSV1 SAVING "FLOW RIGHT FACE " ON UNIT  53 AT TIME STEP 95, STRESS PERIOD   3
 UBDSV1 SAVING "FLOW FRONT FACE " ON UNIT  53 AT TIME STEP 95, STRESS PERIOD   3
 UBDSV1 SAVING "FLOW LOWER FACE " ON UNIT  53 AT TIME STEP 95, STRESS PERIOD   3
1
              HEAD IN LAYER   1 AT END OF TIME STEP  95 IN STRESS PERIOD    3
  ---------------------------------------------------------------------------

            1           2           3           4           5           6           7           8           9          10
 ........................................................................................................................
   1    9.999       9.413       8.766       8.019       7.148       6.136       4.932       3.500       1.842      1.6070E-03
   2    9.999       9.378       8.689       7.891       6.987       6.003       4.846       3.452       1.822      1.5878E-03
   3    9.999       9.312       8.533       7.608       6.588       5.708       4.673       3.364       1.786      1.5537E-03
   4    9.999       9.233       8.321       7.135       5.697       5.213       4.439       3.260       1.746      1.5166E-03
   5    9.998       9.187       8.164       6.579       2.744       4.623       4.265       3.202       1.727      1.4984E-03
   6    9.999       9.236       8.325       7.141       5.704       5.219       4.444       3.264       1.748      1.5182E-03
   7    9.999       9.318       8.545       7.624       6.606       5.725       4.686       3.373       1.790      1.5579E-03
   8    9.999       9.391       8.715       7.927       7.026       6.040       4.875       3.472       1.831      1.5969E-03
   9    9.999       9.439       8.819       8.093       7.231       6.213       4.992       3.538       1.861      1.6247E-03
  10    9.999       9.462       8.867       8.165       7.316       6.288       5.045       3.570       1.876      1.6387E-03
1
              HEAD IN LAYER   2 AT END OF TIME STEP  95 IN STRESS PERIOD    3
  ---------------------------------------------------------------------------

            1           2           3           4           5           6           7           8           9          10
 ........................................................................................................................
   1    9.999       9.408       8.757       8.006       7.133       6.121       4.919       3.489       1.835      3.8366E-03
   2    9.999       9.373       8.679       7.878       6.972       5.988       4.832       3.441       1.815      3.7935E-03
   3    9.999       9.307       8.523       7.594       6.572       5.692       4.659       3.353       1.778      3.7169E-03
   4    9.998       9.227       8.310       7.120       5.681       5.197       4.425       3.249       1.739      3.6338E-03
   5    9.998       9.181       8.152       6.562       3.089       4.610       4.251       3.190       1.720      3.5932E-03
   6    9.998       9.230       8.315       7.126       5.688       5.203       4.430       3.252       1.741      3.6375E-03
   7    9.999       9.313       8.535       7.611       6.590       5.709       4.673       3.362       1.783      3.7264E-03
   8    9.999       9.386       8.706       7.915       7.012       6.026       4.862       3.461       1.824      3.8138E-03
   9    9.999       9.435       8.811       8.081       7.218       6.199       4.979       3.528       1.854      3.8762E-03
  10    9.999       9.458       8.859       8.154       7.303       6.274       5.033       3.560       1.869      3.9074E-03
1
              HEAD IN LAYER   3 AT END OF TIME STEP  95 IN STRESS PERIOD    3
  ---------------------------------------------------------------------------

            1           2           3           4           5           6           7           8           9          10
 ........................................................................................................................
   1    9.999       9.404       8.750       7.996       7.121       6.108       4.906       3.478       1.827      4.3052E-03
   2    9.999       9.369       8.672       7.868       6.959       5.974       4.819       3.430       1.807      4.2568E-03
   3    9.999       9.302       8.515       7.583       6.558       5.678       4.645       3.341       1.770      4.1707E-03
   4    9.998       9.223       8.301       7.107       5.672       5.182       4.411       3.237       1.731      4.0776E-03
   5    9.998       9.176       8.142       6.552       3.436       4.602       4.237       3.179       1.711      4.0322E-03
   6    9.998       9.225       8.306       7.113       5.679       5.189       4.416       3.241       1.732      4.0818E-03
   7    9.999       9.309       8.527       7.599       6.577       5.695       4.659       3.351       1.775      4.1816E-03
   8    9.999       9.382       8.699       7.905       7.000       6.012       4.849       3.450       1.817      4.2800E-03
   9    9.999       9.431       8.804       8.072       7.207       6.187       4.967       3.517       1.846      4.3502E-03
  10    9.999       9.454       8.852       8.145       7.293       6.263       5.021       3.550       1.861      4.3853E-03
1
              HEAD IN LAYER   4 AT END OF TIME STEP  95 IN STRESS PERIOD    3
  ---------------------------------------------------------------------------

            1           2           3           4           5           6           7           8           9          10
 ........................................................................................................................
   1    9.999       9.401       8.745       7.989       7.113       6.099       4.897       3.470       1.822      4.3544E-03
   2    9.999       9.366       8.667       7.861       6.950       5.965       4.810       3.422       1.801      4.3052E-03
   3    9.999       9.300       8.509       7.575       6.549       5.668       4.636       3.334       1.765      4.2178E-03
   4    9.998       9.220       8.295       7.099       5.668       5.173       4.401       3.229       1.725      4.1233E-03
   5    9.998       9.173       8.136       6.549       3.657       4.599       4.228       3.171       1.706      4.0772E-03
   6    9.998       9.222       8.300       7.105       5.675       5.180       4.407       3.233       1.727      4.1276E-03
   7    9.999       9.306       8.522       7.592       6.568       5.686       4.650       3.343       1.770      4.2290E-03
   8    9.999       9.380       8.694       7.898       6.992       6.004       4.841       3.443       1.811      4.3289E-03
   9    9.999       9.429       8.800       8.066       7.199       6.179       4.959       3.510       1.841      4.4004E-03
  10    9.999       9.452       8.848       8.139       7.285       6.255       5.013       3.543       1.856      4.4362E-03
1
              HEAD IN LAYER   5 AT END OF TIME STEP  95 IN STRESS PERIOD    3
  ---------------------------------------------------------------------------

            1           2           3           4           5           6           7           8           9          10
 ........................................................................................................................
   1    9.999       9.400       8.743       7.986       7.109       6.095       4.893       3.467       1.819      4.3558E-03
   2    9.999       9.365       8.664       7.857       6.946       5.961       4.806       3.419       1.799      4.3065E-03
   3    9.999       9.298       8.506       7.571       6.545       5.663       4.632       3.330       1.762      4.2188E-03
   4    9.998       9.218       8.292       7.094       5.667       5.168       4.397       3.225       1.722      4.1241E-03
   5    9.998       9.172       8.133       6.547       3.764       4.599       4.223       3.167       1.703      4.0780E-03
   6    9.998       9.221       8.297       7.101       5.674       5.175       4.402       3.229       1.724      4.1285E-03
   7    9.999       9.305       8.519       7.588       6.564       5.681       4.646       3.339       1.767      4.2301E-03
   8    9.999       9.379       8.691       7.894       6.988       5.999       4.837       3.439       1.809      4.3304E-03
   9    9.999       9.428       8.797       8.063       7.195       6.175       4.955       3.507       1.839      4.4022E-03
  10    9.999       9.451       8.846       8.136       7.282       6.251       5.009       3.539       1.854      4.4381E-03

 HEAD WILL BE SAVED ON UNIT   51 AT END OF TIME STEP   95, STRESS PERIOD    3

 DRAWDOWN WILL BE SAVED ON UNIT   52 AT END OF TIME STEP   95, STRESS PERIOD    3
1
  VOLUMETRIC BUDGET FOR ENTIRE MODEL AT END OF TIME STEP   95, STRESS PERIOD   3
  ------------------------------------------------------------------------------

     CUMULATIVE VOLUMES      L**3       RATES FOR THIS TIME STEP      L**3/T
     ------------------                 ------------------------

           IN:                                      IN:
           ---                                      ---
             STORAGE =      445726.7812               STORAGE =        1003.4142
       CONSTANT HEAD =           0.0000         CONSTANT HEAD =           0.0000
               WELLS =           0.0000                 WELLS =           0.0000
     HEAD DEP BOUNDS =       25244.2734       HEAD DEP BOUNDS =         399.4400

            TOTAL IN =      470971.0625              TOTAL IN =        1402.8542

          OUT:                                     OUT:
          ----                                     ----
             STORAGE =           0.0000               STORAGE =           0.0000
       CONSTANT HEAD =           0.0000         CONSTANT HEAD =           0.0000
               WELLS =       47500.0000                 WELLS =         500.0000
     HEAD DEP BOUNDS =      423471.9688       HEAD DEP BOUNDS =         902.8445

           TOTAL OUT =      470971.9688             TOTAL OUT =        1402.8445

            IN - OUT =          -0.9062              IN - OUT =       9.7656E-03

 PERCENT DISCREPANCY =          -0.00     PERCENT DISCREPANCY =           0.00






         TIME SUMMARY AT END OF TIME STEP   95 IN STRESS PERIOD    3
                    SECONDS     MINUTES      HOURS       DAYS        YEARS
                    -----------------------------------------------------------
   TIME STEP LENGTH  86400.      1440.0      24.000      1.0000     2.73785E-03
 STRESS PERIOD TIME 8.20800E+06 1.36800E+05  2280.0      95.000     0.26010    
         TOTAL TIME 1.69344E+07 2.82240E+05  4704.0      196.00     0.53662    
1
 
 SOLVING FOR HEAD 

 OUTPUT CONTROL FOR STRESS PERIOD    3   TIME STEP   96
    SAVE HEAD FOR ALL LAYERS
    SAVE DRAWDOWN FOR ALL LAYERS
    SAVE BUDGET
    PRINT HEAD FOR ALL LAYERS
    PRINT BUDGET
 UBDSV1 SAVING "         STORAGE" ON UNIT  53 AT TIME STEP 96, STRESS PERIOD   3
 UBDSV2 SAVING "   CONSTANT HEAD" ON UNIT  53 AT TIME STEP 96, STRESS PERIOD   3
 UBDSV1 SAVING "FLOW RIGHT FACE " ON UNIT  53 AT TIME STEP 96, STRESS PERIOD   3
 UBDSV1 SAVING "FLOW FRONT FACE " ON UNIT  53 AT TIME STEP 96, STRESS PERIOD   3
 UBDSV1 SAVING "FLOW LOWER FACE " ON UNIT  53 AT TIME STEP 96, STRESS PERIOD   3
1
              HEAD IN LAYER   1 AT END OF TIME STEP  96 IN STRESS PERIOD    3
  ---------------------------------------------------------------------------

            1           2           3           4           5           6           7           8           9          10
 ........................................................................................................................
   1    9.999       9.408       8.757       8.006       7.132       6.120       4.918       3.488       1.836      1.6012E-03
   2    9.999       9.373       8.679       7.878       6.971       5.987       4.831       3.441       1.815      1.5817E-03
   3    9.999       9.307       8.523       7.594       6.571       5.690       4.657       3.352       1.779      1.5473E-03
   4    9.999       9.228       8.310       7.119       5.679       5.194       4.422       3.248       1.739      1.5100E-03
   5    9.998       9.182       8.153       6.564       2.724       4.604       4.248       3.189       1.720      1.4918E-03
   6    9.999       9.230       8.315       7.126       5.686       5.201       4.428       3.251       1.741      1.5117E-03
   7    9.999       9.313       8.535       7.610       6.589       5.708       4.671       3.361       1.783      1.5517E-03
   8    9.999       9.386       8.706       7.914       7.011       6.024       4.861       3.460       1.825      1.5911E-03
   9    9.999       9.435       8.810       8.081       7.217       6.198       4.978       3.527       1.855      1.6192E-03
  10    9.999       9.458       8.858       8.153       7.303       6.274       5.032       3.560       1.870      1.6332E-03
1
              HEAD IN LAYER   2 AT END OF TIME STEP  96 IN STRESS PERIOD    3
  ---------------------------------------------------------------------------

            1           2           3           4           5           6           7           8           9          10
 ........................................................................................................................
   1    9.999       9.403       8.748       7.993       7.118       6.105       4.904       3.478       1.829      3.8234E-03
   2    9.999       9.368       8.670       7.865       6.956       5.971       4.817       3.430       1.808      3.7799E-03
   3    9.999       9.301       8.512       7.580       6.555       5.675       4.643       3.341       1.772      3.7027E-03
   4    9.998       9.222       8.299       7.104       5.663       5.179       4.408       3.236       1.732      3.6191E-03
   5    9.998       9.175       8.141       6.546       3.069       4.591       4.234       3.178       1.713      3.5784E-03
   6    9.998       9.224       8.304       7.111       5.670       5.185       4.413       3.240       1.734      3.6229E-03
   7    9.999       9.308       8.525       7.597       6.574       5.692       4.657       3.350       1.776      3.7125E-03
   8    9.999       9.381       8.696       7.902       6.997       6.010       4.848       3.450       1.818      3.8008E-03
   9    9.999       9.430       8.802       8.069       7.204       6.184       4.965       3.517       1.848      3.8639E-03
  10    9.999       9.454       8.850       8.142       7.290       6.260       5.020       3.550       1.863      3.8954E-03
1
              HEAD IN LAYER   3 AT END OF TIME STEP  96 IN STRESS PERIOD    3
  ---------------------------------------------------------------------------

            1           2           3           4           5           6           7           8           9          10
 ........................................................................................................................
   1    9.999       9.399       8.740       7.983       7.106       6.092       4.891       3.466       1.821      4.2905E-03
   2    9.999       9.364       8.662       7.854       6.943       5.958       4.804       3.418       1.800      4.2417E-03
   3    9.999       9.297       8.504       7.569       6.542       5.661       4.630       3.329       1.764      4.1550E-03
   4    9.998       9.217       8.290       7.092       5.654       5.164       4.394       3.225       1.724      4.0613E-03
   5    9.998       9.171       8.132       6.537       3.417       4.583       4.220       3.166       1.704      4.0157E-03
   6    9.998       9.220       8.295       7.098       5.661       5.171       4.400       3.228       1.726      4.0656E-03
   7    9.999       9.304       8.517       7.586       6.561       5.678       4.644       3.339       1.768      4.1662E-03
   8    9.999       9.378       8.689       7.892       6.985       5.997       4.835       3.439       1.810      4.2654E-03
   9    9.999       9.427       8.795       8.060       7.193       6.172       4.953       3.507       1.841      4.3365E-03
  10    9.999       9.450       8.844       8.133       7.279       6.249       5.008       3.540       1.856      4.3720E-03
1
              HEAD IN LAYER   4 AT END OF TIME STEP  96 IN STRESS PERIOD    3
  ---------------------------------------------------------------------------

            1           2           3           4           5           6           7           8           9          10
 ........................................................................................................................
   1    9.999       9.396       8.736       7.976       7.098       6.083       4.883       3.459       1.816      4.3396E-03
   2    9.999       9.361       8.657       7.847       6.934       5.949       4.795       3.411       1.795      4.2899E-03
   3    9.999       9.294       8.499       7.561       6.532       5.651       4.621       3.322       1.758      4.2019E-03
   4    9.998       9.214       8.284       7.084       5.650       5.155       4.385       3.217       1.718      4.1068E-03
   5    9.998       9.168       8.125       6.533       3.638       4.581       4.211       3.158       1.699      4.0607E-03
   6    9.998       9.217       8.289       7.090       5.658       5.162       4.391       3.221       1.720      4.1113E-03
   7    9.999       9.301       8.512       7.578       6.552       5.669       4.635       3.331       1.763      4.2134E-03
   8    9.999       9.375       8.685       7.885       6.977       5.988       4.827       3.432       1.805      4.3143E-03
   9    9.999       9.424       8.791       8.054       7.185       6.164       4.945       3.500       1.836      4.3866E-03
  10    9.999       9.448       8.840       8.127       7.272       6.241       5.000       3.533       1.851      4.4228E-03
1
              HEAD IN LAYER   5 AT END OF TIME STEP  96 IN STRESS PERIOD    3
  ---------------------------------------------------------------------------

            1           2           3           4           5           6           7           8           9          10
 ........................................................................................................................
   1    9.999       9.395       8.733       7.973       7.093       6.079       4.879       3.455       1.813      4.3410E-03
   2    9.999       9.360       8.654       7.844       6.930       5.944       4.791       3.407       1.792      4.2912E-03
   3    9.999       9.293       8.496       7.557       6.528       5.646       4.616       3.318       1.756      4.2030E-03
   4    9.998       9.213       8.281       7.079       5.649       5.150       4.381       3.213       1.716      4.1077E-03
   5    9.998       9.166       8.122       6.532       3.745       4.580       4.207       3.154       1.696      4.0614E-03
   6    9.998       9.215       8.286       7.086       5.657       5.157       4.386       3.217       1.718      4.1122E-03
   7    9.999       9.299       8.509       7.574       6.547       5.664       4.631       3.327       1.760      4.2146E-03
   8    9.999       9.374       8.682       7.882       6.973       5.984       4.822       3.428       1.803      4.3158E-03
   9    9.999       9.423       8.789       8.051       7.181       6.160       4.941       3.496       1.833      4.3883E-03
  10    9.999       9.447       8.838       8.124       7.268       6.237       4.996       3.529       1.848      4.4246E-03

 HEAD WILL BE SAVED ON UNIT   51 AT END OF TIME STEP   96, STRESS PERIOD    3

 DRAWDOWN WILL BE SAVED ON UNIT   52 AT END OF TIME STEP   96, STRESS PERIOD    3
1
  VOLUMETRIC BUDGET FOR ENTIRE MODEL AT END OF TIME STEP   96, STRESS PERIOD   3
  ------------------------------------------------------------------------------

     CUMULATIVE VOLUMES      L**3       RATES FOR THIS TIME STEP      L**3/T
     ------------------                 ------------------------

           IN:                                      IN:
           ---                                      ---
             STORAGE =      446723.9062               STORAGE =         997.1309
       CONSTANT HEAD =           0.0000         CONSTANT HEAD =           0.0000
               WELLS =           0.0000                 WELLS =           0.0000
     HEAD DEP BOUNDS =       25646.7285       HEAD DEP BOUNDS =         402.4552

            TOTAL IN =      472370.6250              TOTAL IN =        1399.5862

          OUT:                                     OUT:
          ----                                     ----
             STORAGE =           0.0000               STORAGE =           0.0000
       CONSTANT HEAD =           0.0000         CONSTANT HEAD =           0.0000
               WELLS =       48000.0000                 WELLS =         500.0000
     HEAD DEP BOUNDS =      424371.5312       HEAD DEP BOUNDS =         899.5738

           TOTAL OUT =      472371.5312             TOTAL OUT =        1399.5737

            IN - OUT =          -0.9062              IN - OUT =       1.2451E-02

 PERCENT DISCREPANCY =          -0.00     PERCENT DISCREPANCY =           0.00






         TIME SUMMARY AT END OF TIME STEP   96 IN STRESS PERIOD    3
                    SECONDS     MINUTES      HOURS       DAYS        YEARS
                    -----------------------------------------------------------
   TIME STEP LENGTH  86400.      1440.0      24.000      1.0000     2.73785E-03
 STRESS PERIOD TIME 8.29440E+06 1.38240E+05  2304.0      96.000     0.26283    
         TOTAL TIME 1.70208E+07 2.83680E+05  4728.0      197.00     0.53936    
1
 
 SOLVING FOR HEAD 

 OUTPUT CONTROL FOR STRESS PERIOD    3   TIME STEP   97
    SAVE HEAD FOR ALL LAYERS
    SAVE DRAWDOWN FOR ALL LAYERS
    SAVE BUDGET
    PRINT HEAD FOR ALL LAYERS
    PRINT BUDGET
 UBDSV1 SAVING "         STORAGE" ON UNIT  53 AT TIME STEP 97, STRESS PERIOD   3
 UBDSV2 SAVING "   CONSTANT HEAD" ON UNIT  53 AT TIME STEP 97, STRESS PERIOD   3
 UBDSV1 SAVING "FLOW RIGHT FACE " ON UNIT  53 AT TIME STEP 97, STRESS PERIOD   3
 UBDSV1 SAVING "FLOW FRONT FACE " ON UNIT  53 AT TIME STEP 97, STRESS PERIOD   3
 UBDSV1 SAVING "FLOW LOWER FACE " ON UNIT  53 AT TIME STEP 97, STRESS PERIOD   3
1
              HEAD IN LAYER   1 AT END OF TIME STEP  97 IN STRESS PERIOD    3
  ---------------------------------------------------------------------------

            1           2           3           4           5           6           7           8           9          10
 ........................................................................................................................
   1    9.999       9.403       8.747       7.993       7.117       6.104       4.903       3.477       1.830      1.5953E-03
   2    9.999       9.368       8.669       7.864       6.955       5.970       4.816       3.429       1.809      1.5757E-03
   3    9.999       9.302       8.512       7.580       6.554       5.673       4.642       3.340       1.772      1.5409E-03
   4    9.998       9.222       8.299       7.104       5.661       5.176       4.406       3.235       1.732      1.5034E-03
   5    9.998       9.176       8.142       6.548       2.705       4.585       4.231       3.176       1.713      1.4851E-03
   6    9.998       9.225       8.304       7.111       5.669       5.183       4.411       3.239       1.734      1.5052E-03
   7    9.999       9.308       8.525       7.596       6.573       5.691       4.656       3.349       1.777      1.5454E-03
   8    9.999       9.382       8.696       7.901       6.996       6.009       4.846       3.449       1.819      1.5851E-03
   9    9.999       9.430       8.802       8.069       7.203       6.183       4.965       3.517       1.849      1.6136E-03
  10    9.999       9.454       8.850       8.142       7.289       6.260       5.019       3.550       1.864      1.6279E-03
1
              HEAD IN LAYER   2 AT END OF TIME STEP  97 IN STRESS PERIOD    3
  ---------------------------------------------------------------------------

            1           2           3           4           5           6           7           8           9          10
 ........................................................................................................................
   1    9.999       9.398       8.738       7.980       7.103       6.089       4.890       3.466       1.823      3.8102E-03
   2    9.999       9.362       8.660       7.851       6.940       5.955       4.802       3.418       1.802      3.7664E-03
   3    9.999       9.296       8.502       7.566       6.538       5.658       4.628       3.329       1.765      3.6886E-03
   4    9.998       9.216       8.288       7.089       5.645       5.161       4.392       3.224       1.725      3.6046E-03
   5    9.998       9.170       8.130       6.531       3.050       4.572       4.218       3.165       1.706      3.5637E-03
   6    9.998       9.219       8.293       7.096       5.653       5.167       4.397       3.228       1.727      3.6085E-03
   7    9.999       9.303       8.515       7.583       6.558       5.675       4.642       3.338       1.770      3.6987E-03
   8    9.999       9.377       8.687       7.889       6.982       5.994       4.833       3.439       1.812      3.7878E-03
   9    9.999       9.426       8.793       8.058       7.190       6.170       4.952       3.507       1.842      3.8515E-03
  10    9.999       9.449       8.842       8.131       7.277       6.246       5.007       3.540       1.858      3.8835E-03
1
              HEAD IN LAYER   3 AT END OF TIME STEP  97 IN STRESS PERIOD    3
  ---------------------------------------------------------------------------

            1           2           3           4           5           6           7           8           9          10
 ........................................................................................................................
   1    9.999       9.394       8.731       7.970       7.090       6.076       4.877       3.455       1.815      4.2759E-03
   2    9.999       9.358       8.652       7.841       6.927       5.941       4.789       3.407       1.794      4.2266E-03
   3    9.999       9.292       8.494       7.554       6.525       5.643       4.614       3.317       1.757      4.1394E-03
   4    9.998       9.212       8.280       7.077       5.636       5.146       4.378       3.212       1.717      4.0451E-03
   5    9.998       9.165       8.121       6.522       3.398       4.565       4.204       3.153       1.697      3.9994E-03
   6    9.998       9.214       8.284       7.084       5.644       5.153       4.384       3.216       1.719      4.0496E-03
   7    9.999       9.298       8.507       7.572       6.544       5.662       4.629       3.327       1.762      4.1509E-03
   8    9.999       9.373       8.680       7.879       6.970       5.981       4.821       3.428       1.804      4.2510E-03
   9    9.999       9.422       8.787       8.048       7.179       6.158       4.940       3.496       1.835      4.3228E-03
  10    9.999       9.446       8.836       8.122       7.266       6.235       4.995       3.530       1.850      4.3588E-03
1
              HEAD IN LAYER   4 AT END OF TIME STEP  97 IN STRESS PERIOD    3
  ---------------------------------------------------------------------------

            1           2           3           4           5           6           7           8           9          10
 ........................................................................................................................
   1    9.999       9.391       8.726       7.963       7.082       6.067       4.868       3.448       1.810      4.3248E-03
   2    9.999       9.356       8.647       7.834       6.919       5.932       4.781       3.400       1.789      4.2748E-03
   3    9.999       9.289       8.489       7.547       6.516       5.634       4.605       3.310       1.752      4.1862E-03
   4    9.998       9.209       8.274       7.069       5.633       5.137       4.369       3.205       1.712      4.0906E-03
   5    9.998       9.162       8.115       6.518       3.619       4.562       4.195       3.146       1.692      4.0442E-03
   6    9.998       9.211       8.279       7.075       5.640       5.144       4.375       3.208       1.713      4.0952E-03
   7    9.999       9.296       8.502       7.564       6.535       5.652       4.620       3.320       1.757      4.1980E-03
   8    9.999       9.370       8.675       7.872       6.962       5.973       4.812       3.421       1.799      4.2997E-03
   9    9.999       9.420       8.783       8.042       7.171       6.150       4.932       3.489       1.830      4.3728E-03
  10    9.999       9.444       8.832       8.116       7.259       6.227       4.987       3.523       1.845      4.4094E-03
1
              HEAD IN LAYER   5 AT END OF TIME STEP  97 IN STRESS PERIOD    3
  ---------------------------------------------------------------------------

            1           2           3           4           5           6           7           8           9          10
 ........................................................................................................................
   1    9.999       9.390       8.724       7.960       7.078       6.063       4.864       3.444       1.807      4.3262E-03
   2    9.999       9.355       8.645       7.830       6.914       5.928       4.776       3.396       1.786      4.2761E-03
   3    9.999       9.287       8.486       7.543       6.511       5.629       4.601       3.306       1.749      4.1872E-03
   4    9.998       9.207       8.271       7.065       5.632       5.132       4.364       3.201       1.709      4.0914E-03
   5    9.998       9.160       8.111       6.517       3.726       4.562       4.191       3.142       1.689      4.0450E-03
   6    9.998       9.210       8.276       7.071       5.639       5.139       4.370       3.205       1.711      4.0961E-03
   7    9.999       9.294       8.499       7.561       6.531       5.648       4.616       3.316       1.754      4.1992E-03
   8    9.999       9.369       8.673       7.869       6.958       5.968       4.808       3.417       1.797      4.3012E-03
   9    9.999       9.419       8.780       8.039       7.168       6.146       4.928       3.486       1.827      4.3745E-03
  10    9.999       9.443       8.830       8.113       7.255       6.223       4.984       3.519       1.843      4.4113E-03

 HEAD WILL BE SAVED ON UNIT   51 AT END OF TIME STEP   97, STRESS PERIOD    3

 DRAWDOWN WILL BE SAVED ON UNIT   52 AT END OF TIME STEP   97, STRESS PERIOD    3
1
  VOLUMETRIC BUDGET FOR ENTIRE MODEL AT END OF TIME STEP   97, STRESS PERIOD   3
  ------------------------------------------------------------------------------

     CUMULATIVE VOLUMES      L**3       RATES FOR THIS TIME STEP      L**3/T
     ------------------                 ------------------------

           IN:                                      IN:
           ---                                      ---
             STORAGE =      447714.7812               STORAGE =         990.8807
       CONSTANT HEAD =           0.0000         CONSTANT HEAD =           0.0000
               WELLS =           0.0000                 WELLS =           0.0000
     HEAD DEP BOUNDS =       26052.1641       HEAD DEP BOUNDS =         405.4362

            TOTAL IN =      473766.9375              TOTAL IN =        1396.3169

          OUT:                                     OUT:
          ----                                     ----
             STORAGE =           0.0000               STORAGE =           0.0000
       CONSTANT HEAD =           0.0000         CONSTANT HEAD =           0.0000
               WELLS =       48500.0000                 WELLS =         500.0000
     HEAD DEP BOUNDS =      425267.8438       HEAD DEP BOUNDS =         896.3217

           TOTAL OUT =      473767.8438             TOTAL OUT =        1396.3217

            IN - OUT =          -0.9062              IN - OUT =      -4.7607E-03

 PERCENT DISCREPANCY =          -0.00     PERCENT DISCREPANCY =          -0.00






         TIME SUMMARY AT END OF TIME STEP   97 IN STRESS PERIOD    3
                    SECONDS     MINUTES      HOURS       DAYS        YEARS
                    -----------------------------------------------------------
   TIME STEP LENGTH  86400.      1440.0      24.000      1.0000     2.73785E-03
 STRESS PERIOD TIME 8.38080E+06 1.39680E+05  2328.0      97.000     0.26557    
         TOTAL TIME 1.71072E+07 2.85120E+05  4752.0      198.00     0.54209    
1
 
 SOLVING FOR HEAD 

 OUTPUT CONTROL FOR STRESS PERIOD    3   TIME STEP   98
    SAVE HEAD FOR ALL LAYERS
    SAVE DRAWDOWN FOR ALL LAYERS
    SAVE BUDGET
    PRINT HEAD FOR ALL LAYERS
    PRINT BUDGET
 UBDSV1 SAVING "         STORAGE" ON UNIT  53 AT TIME STEP 98, STRESS PERIOD   3
 UBDSV2 SAVING "   CONSTANT HEAD" ON UNIT  53 AT TIME STEP 98, STRESS PERIOD   3
 UBDSV1 SAVING "FLOW RIGHT FACE " ON UNIT  53 AT TIME STEP 98, STRESS PERIOD   3
 UBDSV1 SAVING "FLOW FRONT FACE " ON UNIT  53 AT TIME STEP 98, STRESS PERIOD   3
 UBDSV1 SAVING "FLOW LOWER FACE " ON UNIT  53 AT TIME STEP 98, STRESS PERIOD   3
1
              HEAD IN LAYER   1 AT END OF TIME STEP  98 IN STRESS PERIOD    3
  ---------------------------------------------------------------------------

            1           2           3           4           5           6           7           8           9          10
 ........................................................................................................................
   1    9.999       9.398       8.738       7.980       7.102       6.088       4.889       3.466       1.823      1.5894E-03
   2    9.999       9.363       8.660       7.851       6.939       5.954       4.801       3.418       1.803      1.5695E-03
   3    9.999       9.296       8.502       7.565       6.537       5.656       4.626       3.328       1.765      1.5347E-03
   4    9.998       9.216       8.289       7.089       5.644       5.158       4.390       3.223       1.725      1.4969E-03
   5    9.998       9.170       8.131       6.533       2.686       4.567       4.215       3.164       1.706      1.4787E-03
   6    9.998       9.219       8.293       7.096       5.651       5.165       4.395       3.226       1.727      1.4987E-03
   7    9.999       9.303       8.515       7.583       6.557       5.674       4.640       3.338       1.770      1.5392E-03
   8    9.999       9.377       8.687       7.889       6.981       5.993       4.832       3.438       1.813      1.5793E-03
   9    9.999       9.426       8.793       8.057       7.189       6.169       4.951       3.507       1.843      1.6080E-03
  10    9.999       9.449       8.842       8.130       7.276       6.246       5.006       3.540       1.859      1.6225E-03
1
              HEAD IN LAYER   2 AT END OF TIME STEP  98 IN STRESS PERIOD    3
  ---------------------------------------------------------------------------

            1           2           3           4           5           6           7           8           9          10
 ........................................................................................................................
   1    9.999       9.393       8.729       7.967       7.087       6.074       4.875       3.455       1.817      3.7971E-03
   2    9.999       9.357       8.650       7.838       6.924       5.939       4.788       3.407       1.796      3.7529E-03
   3    9.999       9.291       8.492       7.552       6.522       5.640       4.612       3.317       1.758      3.6747E-03
   4    9.998       9.211       8.278       7.075       5.628       5.143       4.376       3.212       1.718      3.5901E-03
   5    9.998       9.164       8.119       6.516       3.031       4.554       4.201       3.152       1.699      3.5492E-03
   6    9.998       9.213       8.283       7.081       5.635       5.150       4.381       3.215       1.720      3.5942E-03
   7    9.999       9.297       8.505       7.569       6.541       5.659       4.627       3.327       1.763      3.6851E-03
   8    9.999       9.372       8.678       7.876       6.967       5.979       4.819       3.428       1.806      3.7749E-03
   9    9.999       9.421       8.785       8.046       7.176       6.155       4.939       3.496       1.837      3.8393E-03
  10    9.999       9.445       8.834       8.120       7.263       6.232       4.994       3.530       1.852      3.8716E-03
1
              HEAD IN LAYER   3 AT END OF TIME STEP  98 IN STRESS PERIOD    3
  ---------------------------------------------------------------------------

            1           2           3           4           5           6           7           8           9          10
 ........................................................................................................................
   1    9.999       9.389       8.722       7.957       7.075       6.060       4.863       3.444       1.809      4.2613E-03
   2    9.999       9.353       8.643       7.827       6.911       5.925       4.775       3.396       1.788      4.2117E-03
   3    9.999       9.286       8.484       7.540       6.508       5.626       4.599       3.305       1.750      4.1238E-03
   4    9.998       9.206       8.269       7.062       5.619       5.128       4.362       3.200       1.710      4.0291E-03
   5    9.998       9.159       8.110       6.507       3.379       4.546       4.188       3.141       1.691      3.9831E-03
   6    9.998       9.209       8.274       7.069       5.626       5.135       4.368       3.204       1.712      4.0337E-03
   7    9.999       9.293       8.497       7.558       6.528       5.645       4.614       3.316       1.755      4.1357E-03
   8    9.999       9.368       8.671       7.866       6.955       5.966       4.807       3.417       1.798      4.2367E-03
   9    9.999       9.418       8.778       8.036       7.165       6.143       4.927       3.486       1.829      4.3092E-03
  10    9.999       9.442       8.828       8.111       7.252       6.221       4.982       3.520       1.844      4.3456E-03
1
              HEAD IN LAYER   4 AT END OF TIME STEP  98 IN STRESS PERIOD    3
  ---------------------------------------------------------------------------

            1           2           3           4           5           6           7           8           9          10
 ........................................................................................................................
   1    9.999       9.386       8.717       7.950       7.067       6.052       4.854       3.437       1.804      4.3101E-03
   2    9.999       9.351       8.638       7.820       6.903       5.916       4.766       3.388       1.782      4.2597E-03
   3    9.999       9.284       8.479       7.533       6.499       5.617       4.590       3.298       1.745      4.1705E-03
   4    9.998       9.203       8.263       7.054       5.615       5.119       4.353       3.192       1.705      4.0744E-03
   5    9.998       9.156       8.104       6.503       3.600       4.544       4.179       3.133       1.685      4.0278E-03
   6    9.998       9.206       8.268       7.061       5.623       5.126       4.359       3.196       1.707      4.0791E-03
   7    9.999       9.291       8.492       7.551       6.519       5.636       4.605       3.308       1.750      4.1827E-03
   8    9.999       9.366       8.666       7.860       6.947       5.957       4.798       3.410       1.793      4.2853E-03
   9    9.999       9.416       8.774       8.030       7.157       6.135       4.919       3.479       1.824      4.3591E-03
  10    9.999       9.440       8.824       8.105       7.245       6.213       4.975       3.513       1.840      4.3961E-03
1
              HEAD IN LAYER   5 AT END OF TIME STEP  98 IN STRESS PERIOD    3
  ---------------------------------------------------------------------------

            1           2           3           4           5           6           7           8           9          10
 ........................................................................................................................
   1    9.999       9.385       8.715       7.947       7.063       6.047       4.850       3.433       1.801      4.3115E-03
   2    9.999       9.349       8.635       7.817       6.899       5.912       4.762       3.384       1.780      4.2610E-03
   3    9.999       9.282       8.476       7.529       6.495       5.612       4.585       3.294       1.742      4.1716E-03
   4    9.998       9.202       8.260       7.050       5.614       5.114       4.348       3.188       1.702      4.0753E-03
   5    9.998       9.155       8.101       6.502       3.708       4.543       4.174       3.129       1.683      4.0287E-03
   6    9.998       9.204       8.265       7.057       5.622       5.122       4.354       3.192       1.704      4.0801E-03
   7    9.999       9.289       8.489       7.547       6.515       5.631       4.601       3.304       1.748      4.1839E-03
   8    9.999       9.364       8.664       7.856       6.943       5.953       4.794       3.406       1.791      4.2868E-03
   9    9.999       9.414       8.772       8.027       7.154       6.131       4.915       3.476       1.822      4.3608E-03
  10    9.999       9.438       8.822       8.102       7.242       6.209       4.971       3.509       1.837      4.3980E-03

 HEAD WILL BE SAVED ON UNIT   51 AT END OF TIME STEP   98, STRESS PERIOD    3

 DRAWDOWN WILL BE SAVED ON UNIT   52 AT END OF TIME STEP   98, STRESS PERIOD    3
1
  VOLUMETRIC BUDGET FOR ENTIRE MODEL AT END OF TIME STEP   98, STRESS PERIOD   3
  ------------------------------------------------------------------------------

     CUMULATIVE VOLUMES      L**3       RATES FOR THIS TIME STEP      L**3/T
     ------------------                 ------------------------

           IN:                                      IN:
           ---                                      ---
             STORAGE =      448699.4688               STORAGE =         984.6726
       CONSTANT HEAD =           0.0000         CONSTANT HEAD =           0.0000
               WELLS =           0.0000                 WELLS =           0.0000
     HEAD DEP BOUNDS =       26460.5918       HEAD DEP BOUNDS =         408.4275

            TOTAL IN =      475160.0625              TOTAL IN =        1393.1001

          OUT:                                     OUT:
          ----                                     ----
             STORAGE =           0.0000               STORAGE =           0.0000
       CONSTANT HEAD =           0.0000         CONSTANT HEAD =           0.0000
               WELLS =       49000.0000                 WELLS =         500.0000
     HEAD DEP BOUNDS =      426160.9375       HEAD DEP BOUNDS =         893.0911

           TOTAL OUT =      475160.9375             TOTAL OUT =        1393.0911

            IN - OUT =          -0.8750              IN - OUT =       9.0332E-03

 PERCENT DISCREPANCY =          -0.00     PERCENT DISCREPANCY =           0.00






         TIME SUMMARY AT END OF TIME STEP   98 IN STRESS PERIOD    3
                    SECONDS     MINUTES      HOURS       DAYS        YEARS
                    -----------------------------------------------------------
   TIME STEP LENGTH  86400.      1440.0      24.000      1.0000     2.73785E-03
 STRESS PERIOD TIME 8.46720E+06 1.41120E+05  2352.0      98.000     0.26831    
         TOTAL TIME 1.71936E+07 2.86560E+05  4776.0      199.00     0.54483    
1
 
 SOLVING FOR HEAD 

 OUTPUT CONTROL FOR STRESS PERIOD    3   TIME STEP   99
    SAVE HEAD FOR ALL LAYERS
    SAVE DRAWDOWN FOR ALL LAYERS
    SAVE BUDGET
    PRINT HEAD FOR ALL LAYERS
    PRINT BUDGET
 UBDSV1 SAVING "         STORAGE" ON UNIT  53 AT TIME STEP 99, STRESS PERIOD   3
 UBDSV2 SAVING "   CONSTANT HEAD" ON UNIT  53 AT TIME STEP 99, STRESS PERIOD   3
 UBDSV1 SAVING "FLOW RIGHT FACE " ON UNIT  53 AT TIME STEP 99, STRESS PERIOD   3
 UBDSV1 SAVING "FLOW FRONT FACE " ON UNIT  53 AT TIME STEP 99, STRESS PERIOD   3
 UBDSV1 SAVING "FLOW LOWER FACE " ON UNIT  53 AT TIME STEP 99, STRESS PERIOD   3
1
              HEAD IN LAYER   1 AT END OF TIME STEP  99 IN STRESS PERIOD    3
  ---------------------------------------------------------------------------

            1           2           3           4           5           6           7           8           9          10
 ........................................................................................................................
   1    9.999       9.393       8.729       7.967       7.086       6.072       4.874       3.455       1.817      1.5835E-03
   2    9.999       9.358       8.650       7.837       6.923       5.937       4.786       3.406       1.796      1.5636E-03
   3    9.999       9.291       8.492       7.551       6.521       5.639       4.610       3.316       1.759      1.5284E-03
   4    9.998       9.211       8.278       7.074       5.626       5.140       4.374       3.210       1.718      1.4906E-03
   5    9.998       9.165       8.120       6.518       2.667       4.549       4.198       3.151       1.699      1.4723E-03
   6    9.998       9.214       8.283       7.081       5.634       5.147       4.379       3.214       1.720      1.4924E-03
   7    9.999       9.298       8.505       7.569       6.540       5.657       4.625       3.326       1.764      1.5331E-03
   8    9.999       9.372       8.678       7.876       6.966       5.978       4.818       3.427       1.807      1.5735E-03
   9    9.999       9.421       8.785       8.045       7.175       6.154       4.938       3.496       1.837      1.6025E-03
  10    9.999       9.445       8.834       8.119       7.262       6.232       4.993       3.530       1.853      1.6171E-03
1
              HEAD IN LAYER   2 AT END OF TIME STEP  99 IN STRESS PERIOD    3
  ---------------------------------------------------------------------------

            1           2           3           4           5           6           7           8           9          10
 ........................................................................................................................
   1    9.999       9.388       8.720       7.954       7.072       6.058       4.861       3.444       1.810      3.7841E-03
   2    9.999       9.352       8.640       7.825       6.908       5.923       4.773       3.395       1.789      3.7396E-03
   3    9.999       9.285       8.482       7.538       6.505       5.623       4.597       3.305       1.752      3.6608E-03
   4    9.998       9.205       8.267       7.060       5.610       5.125       4.360       3.199       1.711      3.5758E-03
   5    9.998       9.159       8.108       6.501       3.011       4.535       4.185       3.140       1.692      3.5347E-03
   6    9.998       9.208       8.272       7.067       5.618       5.132       4.365       3.203       1.713      3.5800E-03
   7    9.999       9.292       8.495       7.555       6.525       5.642       4.612       3.315       1.757      3.6715E-03
   8    9.999       9.367       8.669       7.864       6.952       5.963       4.805       3.417       1.800      3.7620E-03
   9    9.999       9.417       8.776       8.034       7.162       6.141       4.925       3.486       1.831      3.8271E-03
  10    9.999       9.441       8.826       8.108       7.250       6.219       4.981       3.520       1.846      3.8598E-03
1
              HEAD IN LAYER   3 AT END OF TIME STEP  99 IN STRESS PERIOD    3
  ---------------------------------------------------------------------------

            1           2           3           4           5           6           7           8           9          10
 ........................................................................................................................
   1    9.999       9.384       8.712       7.944       7.060       6.045       4.848       3.433       1.803      4.2468E-03
   2    9.999       9.348       8.633       7.814       6.896       5.909       4.760       3.384       1.781      4.1968E-03
   3    9.999       9.281       8.474       7.526       6.492       5.609       4.583       3.294       1.744      4.1084E-03
   4    9.998       9.201       8.258       7.047       5.601       5.111       4.346       3.188       1.703      4.0131E-03
   5    9.998       9.154       8.099       6.492       3.360       4.528       4.172       3.129       1.684      3.9671E-03
   6    9.998       9.203       8.264       7.054       5.609       5.118       4.352       3.192       1.705      4.0179E-03
   7    9.999       9.288       8.487       7.544       6.512       5.628       4.599       3.304       1.749      4.1206E-03
   8    9.999       9.363       8.662       7.854       6.940       5.951       4.793       3.406       1.792      4.2224E-03
   9    9.999       9.413       8.770       8.025       7.151       6.129       4.914       3.476       1.823      4.2957E-03
  10    9.999       9.438       8.820       8.099       7.239       6.207       4.970       3.510       1.839      4.3325E-03
1
              HEAD IN LAYER   4 AT END OF TIME STEP  99 IN STRESS PERIOD    3
  ---------------------------------------------------------------------------

            1           2           3           4           5           6           7           8           9          10
 ........................................................................................................................
   1    9.999       9.382       8.708       7.938       7.052       6.036       4.840       3.426       1.797      4.2955E-03
   2    9.999       9.346       8.628       7.807       6.887       5.900       4.751       3.377       1.776      4.2447E-03
   3    9.999       9.278       8.468       7.519       6.483       5.600       4.574       3.286       1.739      4.1549E-03
   4    9.998       9.198       8.253       7.039       5.598       5.101       4.337       3.180       1.698      4.0583E-03
   5    9.998       9.151       8.093       6.488       3.581       4.526       4.163       3.121       1.678      4.0116E-03
   6    9.998       9.200       8.258       7.046       5.606       5.109       4.343       3.184       1.700      4.0632E-03
   7    9.999       9.285       8.482       7.537       6.503       5.619       4.590       3.297       1.744      4.1675E-03
   8    9.999       9.361       8.657       7.847       6.932       5.942       4.784       3.399       1.787      4.2709E-03
   9    9.999       9.411       8.766       8.019       7.144       6.121       4.906       3.469       1.818      4.3454E-03
  10    9.999       9.435       8.816       8.094       7.232       6.199       4.962       3.503       1.834      4.3829E-03
1
              HEAD IN LAYER   5 AT END OF TIME STEP  99 IN STRESS PERIOD    3
  ---------------------------------------------------------------------------

            1           2           3           4           5           6           7           8           9          10
 ........................................................................................................................
   1    9.999       9.380       8.705       7.934       7.048       6.032       4.836       3.422       1.795      4.2969E-03
   2    9.999       9.344       8.625       7.804       6.883       5.896       4.747       3.373       1.774      4.2460E-03
   3    9.999       9.277       8.466       7.515       6.478       5.595       4.570       3.282       1.736      4.1560E-03
   4    9.998       9.196       8.250       7.035       5.597       5.097       4.333       3.176       1.695      4.0592E-03
   5    9.998       9.149       8.090       6.487       3.689       4.525       4.158       3.117       1.676      4.0125E-03
   6    9.998       9.199       8.255       7.042       5.605       5.104       4.339       3.180       1.697      4.0642E-03
   7    9.999       9.284       8.479       7.533       6.499       5.615       4.586       3.293       1.741      4.1687E-03
   8    9.999       9.360       8.655       7.844       6.928       5.938       4.780       3.395       1.785      4.2724E-03
   9    9.999       9.410       8.763       8.016       7.140       6.117       4.902       3.465       1.816      4.3472E-03
  10    9.999       9.434       8.814       8.091       7.229       6.195       4.958       3.500       1.832      4.3848E-03

 HEAD WILL BE SAVED ON UNIT   51 AT END OF TIME STEP   99, STRESS PERIOD    3

 DRAWDOWN WILL BE SAVED ON UNIT   52 AT END OF TIME STEP   99, STRESS PERIOD    3
1
  VOLUMETRIC BUDGET FOR ENTIRE MODEL AT END OF TIME STEP   99, STRESS PERIOD   3
  ------------------------------------------------------------------------------

     CUMULATIVE VOLUMES      L**3       RATES FOR THIS TIME STEP      L**3/T
     ------------------                 ------------------------

           IN:                                      IN:
           ---                                      ---
             STORAGE =      449677.9688               STORAGE =         978.4968
       CONSTANT HEAD =           0.0000         CONSTANT HEAD =           0.0000
               WELLS =           0.0000                 WELLS =           0.0000
     HEAD DEP BOUNDS =       26871.9688       HEAD DEP BOUNDS =         411.3779

            TOTAL IN =      476549.9375              TOTAL IN =        1389.8748

          OUT:                                     OUT:
          ----                                     ----
             STORAGE =           0.0000               STORAGE =           0.0000
       CONSTANT HEAD =           0.0000         CONSTANT HEAD =           0.0000
               WELLS =       49500.0000                 WELLS =         500.0000
     HEAD DEP BOUNDS =      427050.8125       HEAD DEP BOUNDS =         889.8837

           TOTAL OUT =      476550.8125             TOTAL OUT =        1389.8838

            IN - OUT =          -0.8750              IN - OUT =      -9.0332E-03

 PERCENT DISCREPANCY =          -0.00     PERCENT DISCREPANCY =          -0.00






         TIME SUMMARY AT END OF TIME STEP   99 IN STRESS PERIOD    3
                    SECONDS     MINUTES      HOURS       DAYS        YEARS
                    -----------------------------------------------------------
   TIME STEP LENGTH  86400.      1440.0      24.000      1.0000     2.73785E-03
 STRESS PERIOD TIME 8.55360E+06 1.42560E+05  2376.0      99.000     0.27105    
         TOTAL TIME 1.72800E+07 2.88000E+05  4800.0      200.00     0.54757    
1
 
 SOLVING FOR HEAD 

 OUTPUT CONTROL FOR STRESS PERIOD    3   TIME STEP  100
    SAVE HEAD FOR ALL LAYERS
    SAVE DRAWDOWN FOR ALL LAYERS
    SAVE BUDGET
    PRINT HEAD FOR ALL LAYERS
    PRINT BUDGET
 UBDSV1 SAVING "         STORAGE" ON UNIT  53 AT TIME STEP100, STRESS PERIOD   3
 UBDSV2 SAVING "   CONSTANT HEAD" ON UNIT  53 AT TIME STEP100, STRESS PERIOD   3
 UBDSV1 SAVING "FLOW RIGHT FACE " ON UNIT  53 AT TIME STEP100, STRESS PERIOD   3
 UBDSV1 SAVING "FLOW FRONT FACE " ON UNIT  53 AT TIME STEP100, STRESS PERIOD   3
 UBDSV1 SAVING "FLOW LOWER FACE " ON UNIT  53 AT TIME STEP100, STRESS PERIOD   3
1
              HEAD IN LAYER   1 AT END OF TIME STEP 100 IN STRESS PERIOD    3
  ---------------------------------------------------------------------------

            1           2           3           4           5           6           7           8           9          10
 ........................................................................................................................
   1    9.999       9.388       8.719       7.954       7.071       6.057       4.860       3.444       1.811      1.5776E-03
   2    9.999       9.353       8.640       7.824       6.907       5.921       4.772       3.395       1.790      1.5577E-03
   3    9.999       9.286       8.482       7.537       6.504       5.622       4.595       3.304       1.752      1.5222E-03
   4    9.998       9.205       8.267       7.060       5.609       5.122       4.357       3.198       1.712      1.4841E-03
   5    9.998       9.159       8.109       6.503       2.648       4.530       4.182       3.139       1.692      1.4658E-03
   6    9.998       9.208       8.272       7.067       5.616       5.129       4.363       3.202       1.714      1.4860E-03
   7    9.999       9.293       8.495       7.555       6.524       5.640       4.610       3.314       1.757      1.5271E-03
   8    9.999       9.367       8.669       7.863       6.951       5.962       4.804       3.416       1.801      1.5678E-03
   9    9.999       9.417       8.776       8.033       7.161       6.140       4.925       3.486       1.832      1.5971E-03
  10    9.999       9.441       8.826       8.108       7.249       6.218       4.981       3.520       1.847      1.6119E-03
1
              HEAD IN LAYER   2 AT END OF TIME STEP 100 IN STRESS PERIOD    3
  ---------------------------------------------------------------------------

            1           2           3           4           5           6           7           8           9          10
 ........................................................................................................................
   1    9.999       9.383       8.710       7.942       7.057       6.042       4.847       3.433       1.804      3.7711E-03
   2    9.999       9.347       8.631       7.811       6.893       5.906       4.758       3.384       1.783      3.7263E-03
   3    9.999       9.280       8.472       7.523       6.489       5.606       4.581       3.293       1.745      3.6470E-03
   4    9.998       9.200       8.257       7.045       5.593       5.107       4.344       3.187       1.705      3.5616E-03
   5    9.998       9.153       8.098       6.486       2.992       4.517       4.169       3.128       1.685      3.5203E-03
   6    9.998       9.202       8.262       7.052       5.601       5.114       4.350       3.191       1.707      3.5659E-03
   7    9.999       9.287       8.485       7.542       6.509       5.626       4.597       3.304       1.750      3.6580E-03
   8    9.999       9.362       8.660       7.851       6.937       5.948       4.791       3.406       1.794      3.7493E-03
   9    9.999       9.413       8.768       8.022       7.148       6.127       4.912       3.476       1.825      3.8151E-03
  10    9.999       9.437       8.818       8.097       7.237       6.205       4.968       3.510       1.841      3.8481E-03
1
              HEAD IN LAYER   3 AT END OF TIME STEP 100 IN STRESS PERIOD    3
  ---------------------------------------------------------------------------

            1           2           3           4           5           6           7           8           9          10
 ........................................................................................................................
   1    9.999       9.379       8.703       7.931       7.045       6.029       4.834       3.422       1.796      4.2324E-03
   2    9.999       9.343       8.623       7.801       6.880       5.893       4.745       3.373       1.775      4.1821E-03
   3    9.999       9.276       8.464       7.512       6.475       5.592       4.568       3.282       1.737      4.0931E-03
   4    9.998       9.195       8.248       7.033       5.584       5.093       4.330       3.176       1.697      3.9973E-03
   5    9.998       9.148       8.089       6.477       3.341       4.510       4.155       3.116       1.677      3.9511E-03
   6    9.998       9.198       8.253       7.040       5.592       5.100       4.336       3.180       1.699      4.0022E-03
   7    9.999       9.283       8.478       7.531       6.496       5.612       4.584       3.293       1.743      4.1056E-03
   8    9.999       9.359       8.653       7.841       6.925       5.935       4.779       3.395       1.786      4.2082E-03
   9    9.999       9.409       8.762       8.013       7.137       6.115       4.900       3.466       1.818      4.2822E-03
  10    9.999       9.433       8.812       8.088       7.226       6.193       4.957       3.500       1.833      4.3195E-03
1
              HEAD IN LAYER   4 AT END OF TIME STEP 100 IN STRESS PERIOD    3
  ---------------------------------------------------------------------------

            1           2           3           4           5           6           7           8           9          10
 ........................................................................................................................
   1    9.999       9.377       8.698       7.925       7.037       6.021       4.826       3.415       1.791      4.2809E-03
   2    9.999       9.341       8.618       7.794       6.872       5.884       4.737       3.366       1.770      4.2298E-03
   3    9.999       9.273       8.458       7.505       6.467       5.583       4.559       3.274       1.732      4.1395E-03
   4    9.998       9.192       8.242       7.025       5.581       5.084       4.321       3.168       1.691      4.0424E-03
   5    9.998       9.145       8.083       6.473       3.563       4.508       4.147       3.109       1.672      3.9955E-03
   6    9.998       9.195       8.248       7.032       5.589       5.091       4.327       3.172       1.693      4.0474E-03
   7    9.999       9.280       8.472       7.524       6.488       5.603       4.575       3.285       1.737      4.1524E-03
   8    9.999       9.356       8.648       7.835       6.917       5.927       4.771       3.388       1.781      4.2566E-03
   9    9.999       9.407       8.757       8.007       7.130       6.107       4.893       3.459       1.813      4.3319E-03
  10    9.999       9.431       8.808       8.082       7.219       6.185       4.949       3.493       1.828      4.3698E-03
1
              HEAD IN LAYER   5 AT END OF TIME STEP 100 IN STRESS PERIOD    3
  ---------------------------------------------------------------------------

            1           2           3           4           5           6           7           8           9          10
 ........................................................................................................................
   1    9.999       9.376       8.696       7.921       7.033       6.016       4.822       3.411       1.789      4.2824E-03
   2    9.999       9.340       8.616       7.790       6.868       5.880       4.732       3.362       1.767      4.2311E-03
   3    9.999       9.272       8.456       7.501       6.462       5.579       4.555       3.271       1.729      4.1406E-03
   4    9.998       9.191       8.239       7.021       5.580       5.079       4.317       3.164       1.689      4.0433E-03
   5    9.998       9.144       8.080       6.472       3.671       4.507       4.142       3.105       1.669      3.9964E-03
   6    9.998       9.194       8.245       7.028       5.588       5.087       4.323       3.169       1.691      4.0484E-03
   7    9.999       9.279       8.470       7.520       6.483       5.598       4.571       3.282       1.735      4.1536E-03
   8    9.999       9.355       8.646       7.831       6.913       5.923       4.766       3.385       1.779      4.2582E-03
   9    9.999       9.406       8.755       8.004       7.126       6.103       4.889       3.455       1.810      4.3336E-03
  10    9.999       9.430       8.806       8.080       7.215       6.182       4.946       3.490       1.826      4.3717E-03

 HEAD WILL BE SAVED ON UNIT   51 AT END OF TIME STEP  100, STRESS PERIOD    3

 DRAWDOWN WILL BE SAVED ON UNIT   52 AT END OF TIME STEP  100, STRESS PERIOD    3
1
  VOLUMETRIC BUDGET FOR ENTIRE MODEL AT END OF TIME STEP  100, STRESS PERIOD   3
  ------------------------------------------------------------------------------

     CUMULATIVE VOLUMES      L**3       RATES FOR THIS TIME STEP      L**3/T
     ------------------                 ------------------------

           IN:                                      IN:
           ---                                      ---
             STORAGE =      450650.3438               STORAGE =         972.3624
       CONSTANT HEAD =           0.0000         CONSTANT HEAD =           0.0000
               WELLS =           0.0000                 WELLS =           0.0000
     HEAD DEP BOUNDS =       27286.2812       HEAD DEP BOUNDS =         414.3116

            TOTAL IN =      477936.6250              TOTAL IN =        1386.6741

          OUT:                                     OUT:
          ----                                     ----
             STORAGE =           0.0000               STORAGE =           0.0000
       CONSTANT HEAD =           0.0000         CONSTANT HEAD =           0.0000
               WELLS =       50000.0000                 WELLS =         500.0000
     HEAD DEP BOUNDS =      427937.5000       HEAD DEP BOUNDS =         886.6969

           TOTAL OUT =      477937.5000             TOTAL OUT =        1386.6969

            IN - OUT =          -0.8750              IN - OUT =      -2.2827E-02

 PERCENT DISCREPANCY =          -0.00     PERCENT DISCREPANCY =          -0.00






         TIME SUMMARY AT END OF TIME STEP  100 IN STRESS PERIOD    3
                    SECONDS     MINUTES      HOURS       DAYS        YEARS
                    -----------------------------------------------------------
   TIME STEP LENGTH  86400.      1440.0      24.000      1.0000     2.73785E-03
 STRESS PERIOD TIME 8.64000E+06 1.44000E+05  2400.0      100.00     0.27379    
         TOTAL TIME 1.73664E+07 2.89440E+05  4824.0      201.00     0.55031    
1

 Run end date and time (yyyy/mm/dd hh:mm:ss): 2019/07/12 11:39:29
 Elapsed run time:  0.410 Seconds

