                                  MODFLOW-2005     
      U.S. GEOLOGICAL SURVEY MODULAR FINITE-DIFFERENCE GROUND-WATER FLOW MODEL
                            VERSION 1.12.00 2/3/2017

 LIST FILE: Tutorial02.list
                         UNIT    2

 OPENING Tutorial02.dis
 FILE TYPE:DIS   UNIT   11   STATUS:OLD    
 FORMAT:FORMATTED              ACCESS:SEQUENTIAL          

 OPENING Tutorial02.bas
 FILE TYPE:BAS6   UNIT   13   STATUS:OLD    
 FORMAT:FORMATTED              ACCESS:SEQUENTIAL          

 OPENING Tutorial02.lpf
 FILE TYPE:LPF   UNIT   15   STATUS:OLD    
 FORMAT:FORMATTED              ACCESS:SEQUENTIAL          

 OPENING Tutorial02.pcg
 FILE TYPE:PCG   UNIT   27   STATUS:OLD    
 FORMAT:FORMATTED              ACCESS:SEQUENTIAL          

 OPENING Tutorial02.ghb
 FILE TYPE:GHB   UNIT   23   STATUS:OLD    
 FORMAT:FORMATTED              ACCESS:SEQUENTIAL          

 OPENING Tutorial02.wel
 FILE TYPE:WEL   UNIT   20   STATUS:OLD    
 FORMAT:FORMATTED              ACCESS:SEQUENTIAL          

 OPENING Tutorial02.oc
 FILE TYPE:OC   UNIT   14   STATUS:OLD    
 FORMAT:FORMATTED              ACCESS:SEQUENTIAL          

 OPENING Tutorial02.cbc
 FILE TYPE:DATA(BINARY)   UNIT   53   STATUS:REPLACE
 FORMAT:UNFORMATTED            ACCESS:STREAM              

 OPENING Tutorial02.hds
 FILE TYPE:DATA(BINARY)   UNIT   51   STATUS:REPLACE
 FORMAT:UNFORMATTED            ACCESS:STREAM              

 OPENING Tutorial02.ddn
 FILE TYPE:DATA(BINARY)   UNIT   52   STATUS:REPLACE
 FORMAT:UNFORMATTED            ACCESS:STREAM              

 BAS -- BASIC PACKAGE, VERSION 7, 5/2/2005 INPUT READ FROM UNIT   13
 
 MODFLOW was compiled using mixed precision
 Precision of REAL variables:           6
 Precision of DOUBLE PRECISION variables:          15

 DISCRETIZATION INPUT DATA READ FROM UNIT   11
 # DIS package for  MODFLOW-2005, generated by Flopy.
    4 LAYERS        10 ROWS        10 COLUMNS
    5 STRESS PERIOD(S) IN SIMULATION
 MODEL TIME UNIT IS DAYS
 MODEL LENGTH UNIT IS METERS
  Confining bed flag for each layer:
   0   0   0   0

                     DELR =   100.000    

                     DELC =   100.000    

 TOP ELEVATION OF LAYER 1 =   10.0000    

   MODEL LAYER BOTTOM EL. =  -5.00000     FOR LAYER   1

   MODEL LAYER BOTTOM EL. =  -20.0000     FOR LAYER   2

   MODEL LAYER BOTTOM EL. =  -35.0000     FOR LAYER   3

   MODEL LAYER BOTTOM EL. =  -50.0000     FOR LAYER   4


 STRESS PERIOD     LENGTH       TIME STEPS     MULTIPLIER FOR DELT    SS FLAG
 ----------------------------------------------------------------------------
        1         1.000000          1                    1.000         SS
        2         100.0000        100                    1.000         TR
        3         100.0000        100                    1.000         TR
        4         100.0000        100                    1.000         TR
        5         100.0000        100                    1.000         TR

 COMBINED STEADY-STATE AND TRANSIENT SIMULATION



 
 # BAS6 package for  MODFLOW-2005, generated by Flopy.                           
 THE FREE FORMAT OPTION HAS BEEN SELECTED



                     BOUNDARY ARRAY FOR LAYER   1
 READING ON UNIT   13 WITH FORMAT: (10I10)             



                     BOUNDARY ARRAY FOR LAYER   2
 READING ON UNIT   13 WITH FORMAT: (10I10)             



                     BOUNDARY ARRAY FOR LAYER   3
 READING ON UNIT   13 WITH FORMAT: (10I10)             



                     BOUNDARY ARRAY FOR LAYER   4
 READING ON UNIT   13 WITH FORMAT: (10I10)             

 AQUIFER HEAD WILL BE SET TO  -999.99     AT ALL NO-FLOW NODES (IBOUND=0).



                       INITIAL HEAD FOR LAYER   1
 READING ON UNIT   13 WITH FORMAT: (10E15.6)           



                       INITIAL HEAD FOR LAYER   2
 READING ON UNIT   13 WITH FORMAT: (10E15.6)           



                       INITIAL HEAD FOR LAYER   3
 READING ON UNIT   13 WITH FORMAT: (10E15.6)           



                       INITIAL HEAD FOR LAYER   4
 READING ON UNIT   13 WITH FORMAT: (10E15.6)           
 # OC package for  MODFLOW-2005, generated by Flopy.

 OUTPUT CONTROL IS SPECIFIED ONLY AT TIME STEPS FOR WHICH OUTPUT IS DESIRED
 COMPACT CELL-BY-CELL BUDGET FILES WILL BE WRITTEN
 AUXILIARY DATA WILL BE SAVED IN CELL-BY-CELL BUDGET FILES
 HEAD PRINT FORMAT CODE IS   0    DRAWDOWN PRINT FORMAT CODE IS   0
 HEADS WILL BE SAVED ON UNIT   51    DRAWDOWNS WILL BE SAVED ON UNIT   52

 LPF -- LAYER-PROPERTY FLOW PACKAGE, VERSION 7, 5/2/2005
         INPUT READ FROM UNIT   15
 # LPF package for  MODFLOW-2005, generated by Flopy.
 CELL-BY-CELL FLOWS WILL BE SAVED ON UNIT   53
 HEAD AT CELLS THAT CONVERT TO DRY= -1.00000E+30
 No named parameters

   LAYER FLAGS:
 LAYER       LAYTYP        LAYAVG         CHANI        LAYVKA        LAYWET
 ---------------------------------------------------------------------------
    1             1             0     1.000E+00             0             0
    2             1             0     1.000E+00             0             0
    3             1             0     1.000E+00             0             0
    4             1             0     1.000E+00             0             0

   INTERPRETATION OF LAYER FLAGS:
                        INTERBLOCK     HORIZONTAL    DATA IN
         LAYER TYPE   TRANSMISSIVITY   ANISOTROPY   ARRAY VKA   WETTABILITY
 LAYER      (LAYTYP)      (LAYAVG)       (CHANI)      (LAYVKA)      (LAYWET)
 ---------------------------------------------------------------------------
    1   CONVERTIBLE      HARMONIC     1.000E+00    VERTICAL K  NON-WETTABLE
    2   CONVERTIBLE      HARMONIC     1.000E+00    VERTICAL K  NON-WETTABLE
    3   CONVERTIBLE      HARMONIC     1.000E+00    VERTICAL K  NON-WETTABLE
    4   CONVERTIBLE      HARMONIC     1.000E+00    VERTICAL K  NON-WETTABLE

 WETTING CAPABILITY IS NOT ACTIVE IN ANY LAYER

    HYD. COND. ALONG ROWS =   1.00000     FOR LAYER   1

      VERTICAL HYD. COND. =   1.00000     FOR LAYER   1

         SPECIFIC STORAGE =  1.000000E-04 FOR LAYER   1

           SPECIFIC YIELD =  0.100000     FOR LAYER   1

    HYD. COND. ALONG ROWS =   1.00000     FOR LAYER   2

      VERTICAL HYD. COND. =   1.00000     FOR LAYER   2

         SPECIFIC STORAGE =  1.000000E-04 FOR LAYER   2

           SPECIFIC YIELD =  0.100000     FOR LAYER   2

    HYD. COND. ALONG ROWS =   1.00000     FOR LAYER   3

      VERTICAL HYD. COND. =   1.00000     FOR LAYER   3

         SPECIFIC STORAGE =  1.000000E-04 FOR LAYER   3

           SPECIFIC YIELD =  0.100000     FOR LAYER   3

    HYD. COND. ALONG ROWS =   1.00000     FOR LAYER   4

      VERTICAL HYD. COND. =   1.00000     FOR LAYER   4

         SPECIFIC STORAGE =  1.000000E-04 FOR LAYER   4

           SPECIFIC YIELD =  0.100000     FOR LAYER   4

 WEL -- WELL PACKAGE, VERSION 7, 5/2/2005 INPUT READ FROM UNIT   20
 # WEL package for  MODFLOW-2005, generated by Flopy.
 No named parameters
 MAXIMUM OF      1 ACTIVE WELLS AT ONE TIME


     0 Well parameters

 GHB -- GENERAL-HEAD BOUNDARY PACKAGE, VERSION 7, 5/2/2005
         INPUT READ FROM UNIT   23
 # GHB package for  MODFLOW-2005, generated by Flopy.
 No named parameters
 MAXIMUM OF     80 ACTIVE GHB CELLS AT ONE TIME


     0 GHB parameters

 PCG -- CONJUGATE-GRADIENT SOLUTION PACKAGE, VERSION 7, 5/2/2005
 # PCG package for  MODFLOW-2005, generated by Flopy.
 MAXIMUM OF     50 CALLS OF SOLUTION ROUTINE
 MAXIMUM OF     30 INTERNAL ITERATIONS PER CALL TO SOLUTION ROUTINE
 MATRIX PRECONDITIONING TYPE :    1



                                    SOLUTION BY THE CONJUGATE-GRADIENT METHOD
                                   -------------------------------------------
                    MAXIMUM NUMBER OF CALLS TO PCG ROUTINE =       50
                        MAXIMUM ITERATIONS PER CALL TO PCG =       30
                               MATRIX PRECONDITIONING TYPE =        1
        RELAXATION FACTOR (ONLY USED WITH PRECOND. TYPE 1) =    0.10000E+01
 PARAMETER OF POLYNOMIAL PRECOND. = 2 (2) OR IS CALCULATED :        0
                         HEAD CHANGE CRITERION FOR CLOSURE =    0.10000E-04
                     RESIDUAL CHANGE CRITERION FOR CLOSURE =    0.10000E-04
            PCG HEAD AND RESIDUAL CHANGE PRINTOUT INTERVAL =      999
     PRINTING FROM SOLVER IS LIMITED(1) OR SUPPRESSED (>1) =        3
                            STEADY-STATE DAMPING PARAMETER =    0.10000E+01
                               TRANSIENT DAMPING PARAMETER =    0.10000E+01
1
                            STRESS PERIOD NO.    1, LENGTH =   1.000000    
                            -----------------------------------------------

                              NUMBER OF TIME STEPS =     1

                               MULTIPLIER FOR DELT =     1.000

                            INITIAL TIME STEP SIZE =   1.000000    

 WELL NO.  LAYER   ROW   COL   STRESS RATE         
 --------------------------------------------------
      1      1      5      5       0.000    

      1 WELL 

 BOUND. NO. LAYER   ROW   COL     STAGE      CONDUCTANCE         
 ----------------------------------------------------------------
      1      1      1      1       10.00           6000.    
      2      1      1     10       10.00           6000.    
      3      1      2      1       10.00           6000.    
      4      1      2     10       10.00           6000.    
      5      1      3      1       10.00           6000.    
      6      1      3     10       10.00           6000.    
      7      1      4      1       10.00           6000.    
      8      1      4     10       10.00           6000.    
      9      1      5      1       10.00           6000.    
     10      1      5     10       10.00           6000.    
     11      1      6      1       10.00           6000.    
     12      1      6     10       10.00           6000.    
     13      1      7      1       10.00           6000.    
     14      1      7     10       10.00           6000.    
     15      1      8      1       10.00           6000.    
     16      1      8     10       10.00           6000.    
     17      1      9      1       10.00           6000.    
     18      1      9     10       10.00           6000.    
     19      1     10      1       10.00           6000.    
     20      1     10     10       10.00           6000.    
     21      2      1      1       10.00           6000.    
     22      2      1     10       10.00           6000.    
     23      2      2      1       10.00           6000.    
     24      2      2     10       10.00           6000.    
     25      2      3      1       10.00           6000.    
     26      2      3     10       10.00           6000.    
     27      2      4      1       10.00           6000.    
     28      2      4     10       10.00           6000.    
     29      2      5      1       10.00           6000.    
     30      2      5     10       10.00           6000.    
     31      2      6      1       10.00           6000.    
     32      2      6     10       10.00           6000.    
     33      2      7      1       10.00           6000.    
     34      2      7     10       10.00           6000.    
     35      2      8      1       10.00           6000.    
     36      2      8     10       10.00           6000.    
     37      2      9      1       10.00           6000.    
     38      2      9     10       10.00           6000.    
     39      2     10      1       10.00           6000.    
     40      2     10     10       10.00           6000.    
     41      3      1      1       10.00           6000.    
     42      3      1     10       10.00           6000.    
     43      3      2      1       10.00           6000.    
     44      3      2     10       10.00           6000.    
     45      3      3      1       10.00           6000.    
     46      3      3     10       10.00           6000.    
     47      3      4      1       10.00           6000.    
     48      3      4     10       10.00           6000.    
     49      3      5      1       10.00           6000.    
     50      3      5     10       10.00           6000.    
     51      3      6      1       10.00           6000.    
     52      3      6     10       10.00           6000.    
     53      3      7      1       10.00           6000.    
     54      3      7     10       10.00           6000.    
     55      3      8      1       10.00           6000.    
     56      3      8     10       10.00           6000.    
     57      3      9      1       10.00           6000.    
     58      3      9     10       10.00           6000.    
     59      3     10      1       10.00           6000.    
     60      3     10     10       10.00           6000.    
     61      4      1      1       10.00           6000.    
     62      4      1     10       10.00           6000.    
     63      4      2      1       10.00           6000.    
     64      4      2     10       10.00           6000.    
     65      4      3      1       10.00           6000.    
     66      4      3     10       10.00           6000.    
     67      4      4      1       10.00           6000.    
     68      4      4     10       10.00           6000.    
     69      4      5      1       10.00           6000.    
     70      4      5     10       10.00           6000.    
     71      4      6      1       10.00           6000.    
     72      4      6     10       10.00           6000.    
     73      4      7      1       10.00           6000.    
     74      4      7     10       10.00           6000.    
     75      4      8      1       10.00           6000.    
     76      4      8     10       10.00           6000.    
     77      4      9      1       10.00           6000.    
     78      4      9     10       10.00           6000.    
     79      4     10      1       10.00           6000.    
     80      4     10     10       10.00           6000.    

     80 GHB CELLS
 
 SOLVING FOR HEAD 

 OUTPUT CONTROL FOR STRESS PERIOD    1   TIME STEP    1
    SAVE HEAD FOR ALL LAYERS
    SAVE DRAWDOWN FOR ALL LAYERS
    SAVE BUDGET
    PRINT HEAD FOR ALL LAYERS
    PRINT BUDGET
 UBDSV2 SAVING "   CONSTANT HEAD" ON UNIT  53 AT TIME STEP  1, STRESS PERIOD   1
 UBDSV1 SAVING "FLOW RIGHT FACE " ON UNIT  53 AT TIME STEP  1, STRESS PERIOD   1
 UBDSV1 SAVING "FLOW FRONT FACE " ON UNIT  53 AT TIME STEP  1, STRESS PERIOD   1
 UBDSV1 SAVING "FLOW LOWER FACE " ON UNIT  53 AT TIME STEP  1, STRESS PERIOD   1
1
              HEAD IN LAYER   1 AT END OF TIME STEP   1 IN STRESS PERIOD    1
  ---------------------------------------------------------------------------

            1           2           3           4           5           6           7           8           9          10
 ........................................................................................................................
   1    10.00       10.00       10.00       10.00       10.00       10.00       10.00       10.00       10.00       10.00    
   2    10.00       10.00       10.00       10.00       10.00       10.00       10.00       10.00       10.00       10.00    
   3    10.00       10.00       10.00       10.00       10.00       10.00       10.00       10.00       10.00       10.00    
   4    10.00       10.00       10.00       10.00       10.00       10.00       10.00       10.00       10.00       10.00    
   5    10.00       10.00       10.00       10.00       10.00       10.00       10.00       10.00       10.00       10.00    
   6    10.00       10.00       10.00       10.00       10.00       10.00       10.00       10.00       10.00       10.00    
   7    10.00       10.00       10.00       10.00       10.00       10.00       10.00       10.00       10.00       10.00    
   8    10.00       10.00       10.00       10.00       10.00       10.00       10.00       10.00       10.00       10.00    
   9    10.00       10.00       10.00       10.00       10.00       10.00       10.00       10.00       10.00       10.00    
  10    10.00       10.00       10.00       10.00       10.00       10.00       10.00       10.00       10.00       10.00    
1
              HEAD IN LAYER   2 AT END OF TIME STEP   1 IN STRESS PERIOD    1
  ---------------------------------------------------------------------------

            1           2           3           4           5           6           7           8           9          10
 ........................................................................................................................
   1    10.00       10.00       10.00       10.00       10.00       10.00       10.00       10.00       10.00       10.00    
   2    10.00       10.00       10.00       10.00       10.00       10.00       10.00       10.00       10.00       10.00    
   3    10.00       10.00       10.00       10.00       10.00       10.00       10.00       10.00       10.00       10.00    
   4    10.00       10.00       10.00       10.00       10.00       10.00       10.00       10.00       10.00       10.00    
   5    10.00       10.00       10.00       10.00       10.00       10.00       10.00       10.00       10.00       10.00    
   6    10.00       10.00       10.00       10.00       10.00       10.00       10.00       10.00       10.00       10.00    
   7    10.00       10.00       10.00       10.00       10.00       10.00       10.00       10.00       10.00       10.00    
   8    10.00       10.00       10.00       10.00       10.00       10.00       10.00       10.00       10.00       10.00    
   9    10.00       10.00       10.00       10.00       10.00       10.00       10.00       10.00       10.00       10.00    
  10    10.00       10.00       10.00       10.00       10.00       10.00       10.00       10.00       10.00       10.00    
1
              HEAD IN LAYER   3 AT END OF TIME STEP   1 IN STRESS PERIOD    1
  ---------------------------------------------------------------------------

            1           2           3           4           5           6           7           8           9          10
 ........................................................................................................................
   1    10.00       10.00       10.00       10.00       10.00       10.00       10.00       10.00       10.00       10.00    
   2    10.00       10.00       10.00       10.00       10.00       10.00       10.00       10.00       10.00       10.00    
   3    10.00       10.00       10.00       10.00       10.00       10.00       10.00       10.00       10.00       10.00    
   4    10.00       10.00       10.00       10.00       10.00       10.00       10.00       10.00       10.00       10.00    
   5    10.00       10.00       10.00       10.00       10.00       10.00       10.00       10.00       10.00       10.00    
   6    10.00       10.00       10.00       10.00       10.00       10.00       10.00       10.00       10.00       10.00    
   7    10.00       10.00       10.00       10.00       10.00       10.00       10.00       10.00       10.00       10.00    
   8    10.00       10.00       10.00       10.00       10.00       10.00       10.00       10.00       10.00       10.00    
   9    10.00       10.00       10.00       10.00       10.00       10.00       10.00       10.00       10.00       10.00    
  10    10.00       10.00       10.00       10.00       10.00       10.00       10.00       10.00       10.00       10.00    
1
              HEAD IN LAYER   4 AT END OF TIME STEP   1 IN STRESS PERIOD    1
  ---------------------------------------------------------------------------

            1           2           3           4           5           6           7           8           9          10
 ........................................................................................................................
   1    10.00       10.00       10.00       10.00       10.00       10.00       10.00       10.00       10.00       10.00    
   2    10.00       10.00       10.00       10.00       10.00       10.00       10.00       10.00       10.00       10.00    
   3    10.00       10.00       10.00       10.00       10.00       10.00       10.00       10.00       10.00       10.00    
   4    10.00       10.00       10.00       10.00       10.00       10.00       10.00       10.00       10.00       10.00    
   5    10.00       10.00       10.00       10.00       10.00       10.00       10.00       10.00       10.00       10.00    
   6    10.00       10.00       10.00       10.00       10.00       10.00       10.00       10.00       10.00       10.00    
   7    10.00       10.00       10.00       10.00       10.00       10.00       10.00       10.00       10.00       10.00    
   8    10.00       10.00       10.00       10.00       10.00       10.00       10.00       10.00       10.00       10.00    
   9    10.00       10.00       10.00       10.00       10.00       10.00       10.00       10.00       10.00       10.00    
  10    10.00       10.00       10.00       10.00       10.00       10.00       10.00       10.00       10.00       10.00    

 HEAD WILL BE SAVED ON UNIT   51 AT END OF TIME STEP    1, STRESS PERIOD    1

 DRAWDOWN WILL BE SAVED ON UNIT   52 AT END OF TIME STEP    1, STRESS PERIOD    1
1
  VOLUMETRIC BUDGET FOR ENTIRE MODEL AT END OF TIME STEP    1, STRESS PERIOD   1
  ------------------------------------------------------------------------------

     CUMULATIVE VOLUMES      L**3       RATES FOR THIS TIME STEP      L**3/T
     ------------------                 ------------------------

           IN:                                      IN:
           ---                                      ---
             STORAGE =           0.0000               STORAGE =           0.0000
       CONSTANT HEAD =           0.0000         CONSTANT HEAD =           0.0000
               WELLS =           0.0000                 WELLS =           0.0000
     HEAD DEP BOUNDS =           0.0000       HEAD DEP BOUNDS =           0.0000

            TOTAL IN =           0.0000              TOTAL IN =           0.0000

          OUT:                                     OUT:
          ----                                     ----
             STORAGE =           0.0000               STORAGE =           0.0000
       CONSTANT HEAD =           0.0000         CONSTANT HEAD =           0.0000
               WELLS =           0.0000                 WELLS =           0.0000
     HEAD DEP BOUNDS =           0.0000       HEAD DEP BOUNDS =           0.0000

           TOTAL OUT =           0.0000             TOTAL OUT =           0.0000

            IN - OUT =           0.0000              IN - OUT =           0.0000

 PERCENT DISCREPANCY =           0.00     PERCENT DISCREPANCY =           0.00






         TIME SUMMARY AT END OF TIME STEP    1 IN STRESS PERIOD    1
                    SECONDS     MINUTES      HOURS       DAYS        YEARS
                    -----------------------------------------------------------
   TIME STEP LENGTH  86400.      1440.0      24.000      1.0000     2.73785E-03
 STRESS PERIOD TIME  86400.      1440.0      24.000      1.0000     2.73785E-03
         TOTAL TIME  86400.      1440.0      24.000      1.0000     2.73785E-03
1
1
                            STRESS PERIOD NO.    2, LENGTH =   100.0000    
                            -----------------------------------------------

                              NUMBER OF TIME STEPS =   100

                               MULTIPLIER FOR DELT =     1.000

                            INITIAL TIME STEP SIZE =   1.000000    

 WELL NO.  LAYER   ROW   COL   STRESS RATE         
 --------------------------------------------------
      1      1      5      5       0.000    

      1 WELL 

 BOUND. NO. LAYER   ROW   COL     STAGE      CONDUCTANCE         
 ----------------------------------------------------------------
      1      1      1      1       10.00           6000.    
      2      1      1     10       0.000           5000.    
      3      1      2      1       10.00           6000.    
      4      1      2     10       0.000           5000.    
      5      1      3      1       10.00           6000.    
      6      1      3     10       0.000           5000.    
      7      1      4      1       10.00           6000.    
      8      1      4     10       0.000           5000.    
      9      1      5      1       10.00           6000.    
     10      1      5     10       0.000           5000.    
     11      1      6      1       10.00           6000.    
     12      1      6     10       0.000           5000.    
     13      1      7      1       10.00           6000.    
     14      1      7     10       0.000           5000.    
     15      1      8      1       10.00           6000.    
     16      1      8     10       0.000           5000.    
     17      1      9      1       10.00           6000.    
     18      1      9     10       0.000           5000.    
     19      1     10      1       10.00           6000.    
     20      1     10     10       0.000           5000.    
     21      2      1      1       10.00           6000.    
     22      2      1     10       0.000           5000.    
     23      2      2      1       10.00           6000.    
     24      2      2     10       0.000           5000.    
     25      2      3      1       10.00           6000.    
     26      2      3     10       0.000           5000.    
     27      2      4      1       10.00           6000.    
     28      2      4     10       0.000           5000.    
     29      2      5      1       10.00           6000.    
     30      2      5     10       0.000           5000.    
     31      2      6      1       10.00           6000.    
     32      2      6     10       0.000           5000.    
     33      2      7      1       10.00           6000.    
     34      2      7     10       0.000           5000.    
     35      2      8      1       10.00           6000.    
     36      2      8     10       0.000           5000.    
     37      2      9      1       10.00           6000.    
     38      2      9     10       0.000           5000.    
     39      2     10      1       10.00           6000.    
     40      2     10     10       0.000           5000.    
     41      3      1      1       10.00           6000.    
     42      3      1     10       0.000           5000.    
     43      3      2      1       10.00           6000.    
     44      3      2     10       0.000           5000.    
     45      3      3      1       10.00           6000.    
     46      3      3     10       0.000           5000.    
     47      3      4      1       10.00           6000.    
     48      3      4     10       0.000           5000.    
     49      3      5      1       10.00           6000.    
     50      3      5     10       0.000           5000.    
     51      3      6      1       10.00           6000.    
     52      3      6     10       0.000           5000.    
     53      3      7      1       10.00           6000.    
     54      3      7     10       0.000           5000.    
     55      3      8      1       10.00           6000.    
     56      3      8     10       0.000           5000.    
     57      3      9      1       10.00           6000.    
     58      3      9     10       0.000           5000.    
     59      3     10      1       10.00           6000.    
     60      3     10     10       0.000           5000.    
     61      4      1      1       10.00           6000.    
     62      4      1     10       0.000           5000.    
     63      4      2      1       10.00           6000.    
     64      4      2     10       0.000           5000.    
     65      4      3      1       10.00           6000.    
     66      4      3     10       0.000           5000.    
     67      4      4      1       10.00           6000.    
     68      4      4     10       0.000           5000.    
     69      4      5      1       10.00           6000.    
     70      4      5     10       0.000           5000.    
     71      4      6      1       10.00           6000.    
     72      4      6     10       0.000           5000.    
     73      4      7      1       10.00           6000.    
     74      4      7     10       0.000           5000.    
     75      4      8      1       10.00           6000.    
     76      4      8     10       0.000           5000.    
     77      4      9      1       10.00           6000.    
     78      4      9     10       0.000           5000.    
     79      4     10      1       10.00           6000.    
     80      4     10     10       0.000           5000.    

     80 GHB CELLS
 
 SOLVING FOR HEAD 

 OUTPUT CONTROL FOR STRESS PERIOD    2   TIME STEP    1
    SAVE HEAD FOR ALL LAYERS
    SAVE DRAWDOWN FOR ALL LAYERS
    SAVE BUDGET
    PRINT HEAD FOR ALL LAYERS
    PRINT BUDGET
 UBDSV1 SAVING "         STORAGE" ON UNIT  53 AT TIME STEP  1, STRESS PERIOD   2
 UBDSV2 SAVING "   CONSTANT HEAD" ON UNIT  53 AT TIME STEP  1, STRESS PERIOD   2
 UBDSV1 SAVING "FLOW RIGHT FACE " ON UNIT  53 AT TIME STEP  1, STRESS PERIOD   2
 UBDSV1 SAVING "FLOW FRONT FACE " ON UNIT  53 AT TIME STEP  1, STRESS PERIOD   2
 UBDSV1 SAVING "FLOW LOWER FACE " ON UNIT  53 AT TIME STEP  1, STRESS PERIOD   2
1
              HEAD IN LAYER   1 AT END OF TIME STEP   1 IN STRESS PERIOD    2
  ---------------------------------------------------------------------------

            1           2           3           4           5           6           7           8           9          10
 ........................................................................................................................
   1    10.00       10.00       10.00       10.00       10.00      10.000       9.996       9.963       9.627       1.488    
   2    10.00       10.00       10.00       10.00       10.00      10.000       9.996       9.963       9.627       1.488    
   3    10.00       10.00       10.00       10.00       10.00      10.000       9.996       9.963       9.627       1.488    
   4    10.00       10.00       10.00       10.00       10.00      10.000       9.996       9.963       9.627       1.488    
   5    10.00       10.00       10.00       10.00       10.00      10.000       9.996       9.963       9.627       1.488    
   6    10.00       10.00       10.00       10.00       10.00      10.000       9.996       9.963       9.627       1.488    
   7    10.00       10.00       10.00       10.00       10.00      10.000       9.996       9.963       9.627       1.488    
   8    10.00       10.00       10.00       10.00       10.00      10.000       9.996       9.963       9.627       1.488    
   9    10.00       10.00       10.00       10.00       10.00      10.000       9.996       9.963       9.627       1.488    
  10    10.00       10.00       10.00       10.00       10.00      10.000       9.996       9.963       9.627       1.488    
1
              HEAD IN LAYER   2 AT END OF TIME STEP   1 IN STRESS PERIOD    2
  ---------------------------------------------------------------------------

            1           2           3           4           5           6           7           8           9          10
 ........................................................................................................................
   1    10.00       10.00       10.00       10.00      10.000       9.999       9.991       9.914       9.175      0.2603    
   2    10.00       10.00       10.00       10.00      10.000       9.999       9.991       9.914       9.175      0.2603    
   3    10.00       10.00       10.00       10.00      10.000       9.999       9.991       9.914       9.175      0.2603    
   4    10.00       10.00       10.00       10.00      10.000       9.999       9.991       9.914       9.175      0.2603    
   5    10.00       10.00       10.00       10.00      10.000       9.999       9.991       9.914       9.175      0.2603    
   6    10.00       10.00       10.00       10.00      10.000       9.999       9.991       9.914       9.175      0.2603    
   7    10.00       10.00       10.00       10.00      10.000       9.999       9.991       9.914       9.175      0.2603    
   8    10.00       10.00       10.00       10.00      10.000       9.999       9.991       9.914       9.175      0.2603    
   9    10.00       10.00       10.00       10.00      10.000       9.999       9.991       9.914       9.175      0.2603    
  10    10.00       10.00       10.00       10.00      10.000       9.999       9.991       9.914       9.175      0.2603    
1
              HEAD IN LAYER   3 AT END OF TIME STEP   1 IN STRESS PERIOD    2
  ---------------------------------------------------------------------------

            1           2           3           4           5           6           7           8           9          10
 ........................................................................................................................
   1    10.00       10.00       10.00       10.00      10.000       9.999       9.987       9.877       8.882      7.7901E-02
   2    10.00       10.00       10.00       10.00      10.000       9.999       9.987       9.877       8.882      7.7901E-02
   3    10.00       10.00       10.00       10.00      10.000       9.999       9.987       9.877       8.882      7.7901E-02
   4    10.00       10.00       10.00       10.00      10.000       9.999       9.987       9.877       8.882      7.7901E-02
   5    10.00       10.00       10.00       10.00      10.000       9.999       9.987       9.877       8.882      7.7901E-02
   6    10.00       10.00       10.00       10.00      10.000       9.999       9.987       9.877       8.882      7.7901E-02
   7    10.00       10.00       10.00       10.00      10.000       9.999       9.987       9.877       8.882      7.7901E-02
   8    10.00       10.00       10.00       10.00      10.000       9.999       9.987       9.877       8.882      7.7901E-02
   9    10.00       10.00       10.00       10.00      10.000       9.999       9.987       9.877       8.882      7.7901E-02
  10    10.00       10.00       10.00       10.00      10.000       9.999       9.987       9.877       8.882      7.7901E-02
1
              HEAD IN LAYER   4 AT END OF TIME STEP   1 IN STRESS PERIOD    2
  ---------------------------------------------------------------------------

            1           2           3           4           5           6           7           8           9          10
 ........................................................................................................................
   1    10.00       10.00       10.00       10.00      10.000       9.998       9.984       9.858       8.740      5.8462E-02
   2    10.00       10.00       10.00       10.00      10.000       9.998       9.984       9.858       8.740      5.8462E-02
   3    10.00       10.00       10.00       10.00      10.000       9.998       9.984       9.858       8.740      5.8462E-02
   4    10.00       10.00       10.00       10.00      10.000       9.998       9.984       9.858       8.740      5.8462E-02
   5    10.00       10.00       10.00       10.00      10.000       9.998       9.984       9.858       8.740      5.8462E-02
   6    10.00       10.00       10.00       10.00      10.000       9.998       9.984       9.858       8.740      5.8462E-02
   7    10.00       10.00       10.00       10.00      10.000       9.998       9.984       9.858       8.740      5.8462E-02
   8    10.00       10.00       10.00       10.00      10.000       9.998       9.984       9.858       8.740      5.8462E-02
   9    10.00       10.00       10.00       10.00      10.000       9.998       9.984       9.858       8.740      5.8462E-02
  10    10.00       10.00       10.00       10.00      10.000       9.998       9.984       9.858       8.740      5.8462E-02

 HEAD WILL BE SAVED ON UNIT   51 AT END OF TIME STEP    1, STRESS PERIOD    2

 DRAWDOWN WILL BE SAVED ON UNIT   52 AT END OF TIME STEP    1, STRESS PERIOD    2
1
  VOLUMETRIC BUDGET FOR ENTIRE MODEL AT END OF TIME STEP    1, STRESS PERIOD   2
  ------------------------------------------------------------------------------

     CUMULATIVE VOLUMES      L**3       RATES FOR THIS TIME STEP      L**3/T
     ------------------                 ------------------------

           IN:                                      IN:
           ---                                      ---
             STORAGE =       94248.5938               STORAGE =       94248.5938
       CONSTANT HEAD =           0.0000         CONSTANT HEAD =           0.0000
               WELLS =           0.0000                 WELLS =           0.0000
     HEAD DEP BOUNDS =       6.3648E-05       HEAD DEP BOUNDS =       6.3648E-05

            TOTAL IN =       94248.5938              TOTAL IN =       94248.5938

          OUT:                                     OUT:
          ----                                     ----
             STORAGE =           0.0000               STORAGE =           0.0000
       CONSTANT HEAD =           0.0000         CONSTANT HEAD =           0.0000
               WELLS =           0.0000                 WELLS =           0.0000
     HEAD DEP BOUNDS =       94248.5938       HEAD DEP BOUNDS =       94248.5938

           TOTAL OUT =       94248.5938             TOTAL OUT =       94248.5938

            IN - OUT =           0.0000              IN - OUT =           0.0000

 PERCENT DISCREPANCY =           0.00     PERCENT DISCREPANCY =           0.00






         TIME SUMMARY AT END OF TIME STEP    1 IN STRESS PERIOD    2
                    SECONDS     MINUTES      HOURS       DAYS        YEARS
                    -----------------------------------------------------------
   TIME STEP LENGTH  86400.      1440.0      24.000      1.0000     2.73785E-03
 STRESS PERIOD TIME  86400.      1440.0      24.000      1.0000     2.73785E-03
         TOTAL TIME 1.72800E+05  2880.0      48.000      2.0000     5.47570E-03
1
 
 SOLVING FOR HEAD 

 OUTPUT CONTROL FOR STRESS PERIOD    2   TIME STEP    2
    SAVE HEAD FOR ALL LAYERS
    SAVE DRAWDOWN FOR ALL LAYERS
    SAVE BUDGET
    PRINT HEAD FOR ALL LAYERS
    PRINT BUDGET
 UBDSV1 SAVING "         STORAGE" ON UNIT  53 AT TIME STEP  2, STRESS PERIOD   2
 UBDSV2 SAVING "   CONSTANT HEAD" ON UNIT  53 AT TIME STEP  2, STRESS PERIOD   2
 UBDSV1 SAVING "FLOW RIGHT FACE " ON UNIT  53 AT TIME STEP  2, STRESS PERIOD   2
 UBDSV1 SAVING "FLOW FRONT FACE " ON UNIT  53 AT TIME STEP  2, STRESS PERIOD   2
 UBDSV1 SAVING "FLOW LOWER FACE " ON UNIT  53 AT TIME STEP  2, STRESS PERIOD   2
1
              HEAD IN LAYER   1 AT END OF TIME STEP   2 IN STRESS PERIOD    2
  ---------------------------------------------------------------------------

            1           2           3           4           5           6           7           8           9          10
 ........................................................................................................................
   1    10.00       10.00       10.00       10.00      10.000       9.999       9.989       9.910       9.257      0.2310    
   2    10.00       10.00       10.00       10.00      10.000       9.999       9.989       9.910       9.257      0.2310    
   3    10.00       10.00       10.00       10.00      10.000       9.999       9.989       9.910       9.257      0.2310    
   4    10.00       10.00       10.00       10.00      10.000       9.999       9.989       9.910       9.257      0.2310    
   5    10.00       10.00       10.00       10.00      10.000       9.999       9.989       9.910       9.257      0.2310    
   6    10.00       10.00       10.00       10.00      10.000       9.999       9.989       9.910       9.257      0.2310    
   7    10.00       10.00       10.00       10.00      10.000       9.999       9.989       9.910       9.257      0.2310    
   8    10.00       10.00       10.00       10.00      10.000       9.999       9.989       9.910       9.257      0.2310    
   9    10.00       10.00       10.00       10.00      10.000       9.999       9.989       9.910       9.257      0.2310    
  10    10.00       10.00       10.00       10.00      10.000       9.999       9.989       9.910       9.257      0.2310    
1
              HEAD IN LAYER   2 AT END OF TIME STEP   2 IN STRESS PERIOD    2
  ---------------------------------------------------------------------------

            1           2           3           4           5           6           7           8           9          10
 ........................................................................................................................
   1    10.00       10.00       10.00       10.00      10.000       9.997       9.980       9.843       8.803      5.7375E-02
   2    10.00       10.00       10.00       10.00      10.000       9.997       9.980       9.843       8.803      5.7375E-02
   3    10.00       10.00       10.00       10.00      10.000       9.997       9.980       9.843       8.803      5.7375E-02
   4    10.00       10.00       10.00       10.00      10.000       9.997       9.980       9.843       8.803      5.7375E-02
   5    10.00       10.00       10.00       10.00      10.000       9.997       9.980       9.843       8.803      5.7375E-02
   6    10.00       10.00       10.00       10.00      10.000       9.997       9.980       9.843       8.803      5.7375E-02
   7    10.00       10.00       10.00       10.00      10.000       9.997       9.980       9.843       8.803      5.7375E-02
   8    10.00       10.00       10.00       10.00      10.000       9.997       9.980       9.843       8.803      5.7375E-02
   9    10.00       10.00       10.00       10.00      10.000       9.997       9.980       9.843       8.803      5.7375E-02
  10    10.00       10.00       10.00       10.00      10.000       9.997       9.980       9.843       8.803      5.7375E-02
1
              HEAD IN LAYER   3 AT END OF TIME STEP   2 IN STRESS PERIOD    2
  ---------------------------------------------------------------------------

            1           2           3           4           5           6           7           8           9          10
 ........................................................................................................................
   1    10.00       10.00       10.00      10.000      10.000       9.997       9.973       9.794       8.503      2.8915E-02
   2    10.00       10.00       10.00      10.000      10.000       9.997       9.973       9.794       8.503      2.8915E-02
   3    10.00       10.00       10.00      10.000      10.000       9.997       9.973       9.794       8.503      2.8915E-02
   4    10.00       10.00       10.00      10.000      10.000       9.997       9.973       9.794       8.503      2.8915E-02
   5    10.00       10.00       10.00      10.000      10.000       9.997       9.973       9.794       8.503      2.8915E-02
   6    10.00       10.00       10.00      10.000      10.000       9.997       9.973       9.794       8.503      2.8915E-02
   7    10.00       10.00       10.00      10.000      10.000       9.997       9.973       9.794       8.503      2.8915E-02
   8    10.00       10.00       10.00      10.000      10.000       9.997       9.973       9.794       8.503      2.8915E-02
   9    10.00       10.00       10.00      10.000      10.000       9.997       9.973       9.794       8.503      2.8915E-02
  10    10.00       10.00       10.00      10.000      10.000       9.997       9.973       9.794       8.503      2.8915E-02
1
              HEAD IN LAYER   4 AT END OF TIME STEP   2 IN STRESS PERIOD    2
  ---------------------------------------------------------------------------

            1           2           3           4           5           6           7           8           9          10
 ........................................................................................................................
   1    10.00       10.00       10.00      10.000      10.000       9.996       9.969       9.769       8.356      2.5541E-02
   2    10.00       10.00       10.00      10.000      10.000       9.996       9.969       9.769       8.356      2.5541E-02
   3    10.00       10.00       10.00      10.000      10.000       9.996       9.969       9.769       8.356      2.5541E-02
   4    10.00       10.00       10.00      10.000      10.000       9.996       9.969       9.769       8.356      2.5541E-02
   5    10.00       10.00       10.00      10.000      10.000       9.996       9.969       9.769       8.356      2.5541E-02
   6    10.00       10.00       10.00      10.000      10.000       9.996       9.969       9.769       8.356      2.5541E-02
   7    10.00       10.00       10.00      10.000      10.000       9.996       9.969       9.769       8.356      2.5541E-02
   8    10.00       10.00       10.00      10.000      10.000       9.996       9.969       9.769       8.356      2.5541E-02
   9    10.00       10.00       10.00      10.000      10.000       9.996       9.969       9.769       8.356      2.5541E-02
  10    10.00       10.00       10.00      10.000      10.000       9.996       9.969       9.769       8.356      2.5541E-02

 HEAD WILL BE SAVED ON UNIT   51 AT END OF TIME STEP    2, STRESS PERIOD    2

 DRAWDOWN WILL BE SAVED ON UNIT   52 AT END OF TIME STEP    2, STRESS PERIOD    2
1
  VOLUMETRIC BUDGET FOR ENTIRE MODEL AT END OF TIME STEP    2, STRESS PERIOD   2
  ------------------------------------------------------------------------------

     CUMULATIVE VOLUMES      L**3       RATES FOR THIS TIME STEP      L**3/T
     ------------------                 ------------------------

           IN:                                      IN:
           ---                                      ---
             STORAGE =      111388.6094               STORAGE =       17140.0156
       CONSTANT HEAD =           0.0000         CONSTANT HEAD =           0.0000
               WELLS =           0.0000                 WELLS =           0.0000
     HEAD DEP BOUNDS =       3.7660E-04       HEAD DEP BOUNDS =       3.1295E-04

            TOTAL IN =      111388.6094              TOTAL IN =       17140.0156

          OUT:                                     OUT:
          ----                                     ----
             STORAGE =           0.0000               STORAGE =           0.0000
       CONSTANT HEAD =           0.0000         CONSTANT HEAD =           0.0000
               WELLS =           0.0000                 WELLS =           0.0000
     HEAD DEP BOUNDS =      111388.6094       HEAD DEP BOUNDS =       17140.0137

           TOTAL OUT =      111388.6094             TOTAL OUT =       17140.0137

            IN - OUT =           0.0000              IN - OUT =       1.9531E-03

 PERCENT DISCREPANCY =           0.00     PERCENT DISCREPANCY =           0.00






         TIME SUMMARY AT END OF TIME STEP    2 IN STRESS PERIOD    2
                    SECONDS     MINUTES      HOURS       DAYS        YEARS
                    -----------------------------------------------------------
   TIME STEP LENGTH  86400.      1440.0      24.000      1.0000     2.73785E-03
 STRESS PERIOD TIME 1.72800E+05  2880.0      48.000      2.0000     5.47570E-03
         TOTAL TIME 2.59200E+05  4320.0      72.000      3.0000     8.21355E-03
1
 
 SOLVING FOR HEAD 

 OUTPUT CONTROL FOR STRESS PERIOD    2   TIME STEP    3
    SAVE HEAD FOR ALL LAYERS
    SAVE DRAWDOWN FOR ALL LAYERS
    SAVE BUDGET
    PRINT HEAD FOR ALL LAYERS
    PRINT BUDGET
 UBDSV1 SAVING "         STORAGE" ON UNIT  53 AT TIME STEP  3, STRESS PERIOD   2
 UBDSV2 SAVING "   CONSTANT HEAD" ON UNIT  53 AT TIME STEP  3, STRESS PERIOD   2
 UBDSV1 SAVING "FLOW RIGHT FACE " ON UNIT  53 AT TIME STEP  3, STRESS PERIOD   2
 UBDSV1 SAVING "FLOW FRONT FACE " ON UNIT  53 AT TIME STEP  3, STRESS PERIOD   2
 UBDSV1 SAVING "FLOW LOWER FACE " ON UNIT  53 AT TIME STEP  3, STRESS PERIOD   2
1
              HEAD IN LAYER   1 AT END OF TIME STEP   3 IN STRESS PERIOD    2
  ---------------------------------------------------------------------------

            1           2           3           4           5           6           7           8           9          10
 ........................................................................................................................
   1    10.00       10.00       10.00       10.00      10.000       9.997       9.979       9.846       8.913      4.6465E-02
   2    10.00       10.00       10.00       10.00      10.000       9.997       9.979       9.846       8.913      4.6465E-02
   3    10.00       10.00       10.00       10.00      10.000       9.997       9.979       9.846       8.913      4.6465E-02
   4    10.00       10.00       10.00       10.00      10.000       9.997       9.979       9.846       8.913      4.6465E-02
   5    10.00       10.00       10.00       10.00      10.000       9.997       9.979       9.846       8.913      4.6465E-02
   6    10.00       10.00       10.00       10.00      10.000       9.997       9.979       9.846       8.913      4.6465E-02
   7    10.00       10.00       10.00       10.00      10.000       9.997       9.979       9.846       8.913      4.6465E-02
   8    10.00       10.00       10.00       10.00      10.000       9.997       9.979       9.846       8.913      4.6465E-02
   9    10.00       10.00       10.00       10.00      10.000       9.997       9.979       9.846       8.913      4.6465E-02
  10    10.00       10.00       10.00       10.00      10.000       9.997       9.979       9.846       8.913      4.6465E-02
1
              HEAD IN LAYER   2 AT END OF TIME STEP   3 IN STRESS PERIOD    2
  ---------------------------------------------------------------------------

            1           2           3           4           5           6           7           8           9          10
 ........................................................................................................................
   1    10.00       10.00       10.00      10.000       9.999       9.995       9.966       9.769       8.492      2.8568E-02
   2    10.00       10.00       10.00      10.000       9.999       9.995       9.966       9.769       8.492      2.8568E-02
   3    10.00       10.00       10.00      10.000       9.999       9.995       9.966       9.769       8.492      2.8568E-02
   4    10.00       10.00       10.00      10.000       9.999       9.995       9.966       9.769       8.492      2.8568E-02
   5    10.00       10.00       10.00      10.000       9.999       9.995       9.966       9.769       8.492      2.8568E-02
   6    10.00       10.00       10.00      10.000       9.999       9.995       9.966       9.769       8.492      2.8568E-02
   7    10.00       10.00       10.00      10.000       9.999       9.995       9.966       9.769       8.492      2.8568E-02
   8    10.00       10.00       10.00      10.000       9.999       9.995       9.966       9.769       8.492      2.8568E-02
   9    10.00       10.00       10.00      10.000       9.999       9.995       9.966       9.769       8.492      2.8568E-02
  10    10.00       10.00       10.00      10.000       9.999       9.995       9.966       9.769       8.492      2.8568E-02
1
              HEAD IN LAYER   3 AT END OF TIME STEP   3 IN STRESS PERIOD    2
  ---------------------------------------------------------------------------

            1           2           3           4           5           6           7           8           9          10
 ........................................................................................................................
   1    10.00       10.00       10.00      10.000       9.999       9.994       9.957       9.714       8.210      2.4955E-02
   2    10.00       10.00       10.00      10.000       9.999       9.994       9.957       9.714       8.210      2.4955E-02
   3    10.00       10.00       10.00      10.000       9.999       9.994       9.957       9.714       8.210      2.4955E-02
   4    10.00       10.00       10.00      10.000       9.999       9.994       9.957       9.714       8.210      2.4955E-02
   5    10.00       10.00       10.00      10.000       9.999       9.994       9.957       9.714       8.210      2.4955E-02
   6    10.00       10.00       10.00      10.000       9.999       9.994       9.957       9.714       8.210      2.4955E-02
   7    10.00       10.00       10.00      10.000       9.999       9.994       9.957       9.714       8.210      2.4955E-02
   8    10.00       10.00       10.00      10.000       9.999       9.994       9.957       9.714       8.210      2.4955E-02
   9    10.00       10.00       10.00      10.000       9.999       9.994       9.957       9.714       8.210      2.4955E-02
  10    10.00       10.00       10.00      10.000       9.999       9.994       9.957       9.714       8.210      2.4955E-02
1
              HEAD IN LAYER   4 AT END OF TIME STEP   3 IN STRESS PERIOD    2
  ---------------------------------------------------------------------------

            1           2           3           4           5           6           7           8           9          10
 ........................................................................................................................
   1    10.00       10.00       10.00      10.000       9.999       9.993       9.953       9.686       8.072      2.4242E-02
   2    10.00       10.00       10.00      10.000       9.999       9.993       9.953       9.686       8.072      2.4242E-02
   3    10.00       10.00       10.00      10.000       9.999       9.993       9.953       9.686       8.072      2.4242E-02
   4    10.00       10.00       10.00      10.000       9.999       9.993       9.953       9.686       8.072      2.4242E-02
   5    10.00       10.00       10.00      10.000       9.999       9.993       9.953       9.686       8.072      2.4242E-02
   6    10.00       10.00       10.00      10.000       9.999       9.993       9.953       9.686       8.072      2.4242E-02
   7    10.00       10.00       10.00      10.000       9.999       9.993       9.953       9.686       8.072      2.4242E-02
   8    10.00       10.00       10.00      10.000       9.999       9.993       9.953       9.686       8.072      2.4242E-02
   9    10.00       10.00       10.00      10.000       9.999       9.993       9.953       9.686       8.072      2.4242E-02
  10    10.00       10.00       10.00      10.000       9.999       9.993       9.953       9.686       8.072      2.4242E-02

 HEAD WILL BE SAVED ON UNIT   51 AT END OF TIME STEP    3, STRESS PERIOD    2

 DRAWDOWN WILL BE SAVED ON UNIT   52 AT END OF TIME STEP    3, STRESS PERIOD    2
1
  VOLUMETRIC BUDGET FOR ENTIRE MODEL AT END OF TIME STEP    3, STRESS PERIOD   2
  ------------------------------------------------------------------------------

     CUMULATIVE VOLUMES      L**3       RATES FOR THIS TIME STEP      L**3/T
     ------------------                 ------------------------

           IN:                                      IN:
           ---                                      ---
             STORAGE =      117600.0703               STORAGE =        6211.4580
       CONSTANT HEAD =           0.0000         CONSTANT HEAD =           0.0000
               WELLS =           0.0000                 WELLS =           0.0000
     HEAD DEP BOUNDS =       1.1377E-03       HEAD DEP BOUNDS =       7.6110E-04

            TOTAL IN =      117600.0703              TOTAL IN =        6211.4590

          OUT:                                     OUT:
          ----                                     ----
             STORAGE =           0.0000               STORAGE =           0.0000
       CONSTANT HEAD =           0.0000         CONSTANT HEAD =           0.0000
               WELLS =           0.0000                 WELLS =           0.0000
     HEAD DEP BOUNDS =      117600.0703       HEAD DEP BOUNDS =        6211.4600

           TOTAL OUT =      117600.0703             TOTAL OUT =        6211.4600

            IN - OUT =           0.0000              IN - OUT =      -9.7656E-04

 PERCENT DISCREPANCY =           0.00     PERCENT DISCREPANCY =          -0.00






         TIME SUMMARY AT END OF TIME STEP    3 IN STRESS PERIOD    2
                    SECONDS     MINUTES      HOURS       DAYS        YEARS
                    -----------------------------------------------------------
   TIME STEP LENGTH  86400.      1440.0      24.000      1.0000     2.73785E-03
 STRESS PERIOD TIME 2.59200E+05  4320.0      72.000      3.0000     8.21355E-03
         TOTAL TIME 3.45600E+05  5760.0      96.000      4.0000     1.09514E-02
1
 
 SOLVING FOR HEAD 

 OUTPUT CONTROL FOR STRESS PERIOD    2   TIME STEP    4
    SAVE HEAD FOR ALL LAYERS
    SAVE DRAWDOWN FOR ALL LAYERS
    SAVE BUDGET
    PRINT HEAD FOR ALL LAYERS
    PRINT BUDGET
 UBDSV1 SAVING "         STORAGE" ON UNIT  53 AT TIME STEP  4, STRESS PERIOD   2
 UBDSV2 SAVING "   CONSTANT HEAD" ON UNIT  53 AT TIME STEP  4, STRESS PERIOD   2
 UBDSV1 SAVING "FLOW RIGHT FACE " ON UNIT  53 AT TIME STEP  4, STRESS PERIOD   2
 UBDSV1 SAVING "FLOW FRONT FACE " ON UNIT  53 AT TIME STEP  4, STRESS PERIOD   2
 UBDSV1 SAVING "FLOW LOWER FACE " ON UNIT  53 AT TIME STEP  4, STRESS PERIOD   2
1
              HEAD IN LAYER   1 AT END OF TIME STEP   4 IN STRESS PERIOD    2
  ---------------------------------------------------------------------------

            1           2           3           4           5           6           7           8           9          10
 ........................................................................................................................
   1    10.00       10.00       10.00      10.000       9.999       9.995       9.966       9.775       8.595      1.8998E-02
   2    10.00       10.00       10.00      10.000       9.999       9.995       9.966       9.775       8.595      1.8998E-02
   3    10.00       10.00       10.00      10.000       9.999       9.995       9.966       9.775       8.595      1.8998E-02
   4    10.00       10.00       10.00      10.000       9.999       9.995       9.966       9.775       8.595      1.8998E-02
   5    10.00       10.00       10.00      10.000       9.999       9.995       9.966       9.775       8.595      1.8998E-02
   6    10.00       10.00       10.00      10.000       9.999       9.995       9.966       9.775       8.595      1.8998E-02
   7    10.00       10.00       10.00      10.000       9.999       9.995       9.966       9.775       8.595      1.8998E-02
   8    10.00       10.00       10.00      10.000       9.999       9.995       9.966       9.775       8.595      1.8998E-02
   9    10.00       10.00       10.00      10.000       9.999       9.995       9.966       9.775       8.595      1.8998E-02
  10    10.00       10.00       10.00      10.000       9.999       9.995       9.966       9.775       8.595      1.8998E-02
1
              HEAD IN LAYER   2 AT END OF TIME STEP   4 IN STRESS PERIOD    2
  ---------------------------------------------------------------------------

            1           2           3           4           5           6           7           8           9          10
 ........................................................................................................................
   1    10.00       10.00       10.00      10.000       9.999       9.992       9.950       9.690       8.207      2.3645E-02
   2    10.00       10.00       10.00      10.000       9.999       9.992       9.950       9.690       8.207      2.3645E-02
   3    10.00       10.00       10.00      10.000       9.999       9.992       9.950       9.690       8.207      2.3645E-02
   4    10.00       10.00       10.00      10.000       9.999       9.992       9.950       9.690       8.207      2.3645E-02
   5    10.00       10.00       10.00      10.000       9.999       9.992       9.950       9.690       8.207      2.3645E-02
   6    10.00       10.00       10.00      10.000       9.999       9.992       9.950       9.690       8.207      2.3645E-02
   7    10.00       10.00       10.00      10.000       9.999       9.992       9.950       9.690       8.207      2.3645E-02
   8    10.00       10.00       10.00      10.000       9.999       9.992       9.950       9.690       8.207      2.3645E-02
   9    10.00       10.00       10.00      10.000       9.999       9.992       9.950       9.690       8.207      2.3645E-02
  10    10.00       10.00       10.00      10.000       9.999       9.992       9.950       9.690       8.207      2.3645E-02
1
              HEAD IN LAYER   3 AT END OF TIME STEP   4 IN STRESS PERIOD    2
  ---------------------------------------------------------------------------

            1           2           3           4           5           6           7           8           9          10
 ........................................................................................................................
   1    10.00       10.00       10.00      10.000       9.999       9.991       9.939       9.631       7.943      2.3713E-02
   2    10.00       10.00       10.00      10.000       9.999       9.991       9.939       9.631       7.943      2.3713E-02
   3    10.00       10.00       10.00      10.000       9.999       9.991       9.939       9.631       7.943      2.3713E-02
   4    10.00       10.00       10.00      10.000       9.999       9.991       9.939       9.631       7.943      2.3713E-02
   5    10.00       10.00       10.00      10.000       9.999       9.991       9.939       9.631       7.943      2.3713E-02
   6    10.00       10.00       10.00      10.000       9.999       9.991       9.939       9.631       7.943      2.3713E-02
   7    10.00       10.00       10.00      10.000       9.999       9.991       9.939       9.631       7.943      2.3713E-02
   8    10.00       10.00       10.00      10.000       9.999       9.991       9.939       9.631       7.943      2.3713E-02
   9    10.00       10.00       10.00      10.000       9.999       9.991       9.939       9.631       7.943      2.3713E-02
  10    10.00       10.00       10.00      10.000       9.999       9.991       9.939       9.631       7.943      2.3713E-02
1
              HEAD IN LAYER   4 AT END OF TIME STEP   4 IN STRESS PERIOD    2
  ---------------------------------------------------------------------------

            1           2           3           4           5           6           7           8           9          10
 ........................................................................................................................
   1    10.00       10.00       10.00      10.000       9.998       9.990       9.933       9.600       7.814      2.3414E-02
   2    10.00       10.00       10.00      10.000       9.998       9.990       9.933       9.600       7.814      2.3414E-02
   3    10.00       10.00       10.00      10.000       9.998       9.990       9.933       9.600       7.814      2.3414E-02
   4    10.00       10.00       10.00      10.000       9.998       9.990       9.933       9.600       7.814      2.3414E-02
   5    10.00       10.00       10.00      10.000       9.998       9.990       9.933       9.600       7.814      2.3414E-02
   6    10.00       10.00       10.00      10.000       9.998       9.990       9.933       9.600       7.814      2.3414E-02
   7    10.00       10.00       10.00      10.000       9.998       9.990       9.933       9.600       7.814      2.3414E-02
   8    10.00       10.00       10.00      10.000       9.998       9.990       9.933       9.600       7.814      2.3414E-02
   9    10.00       10.00       10.00      10.000       9.998       9.990       9.933       9.600       7.814      2.3414E-02
  10    10.00       10.00       10.00      10.000       9.998       9.990       9.933       9.600       7.814      2.3414E-02

 HEAD WILL BE SAVED ON UNIT   51 AT END OF TIME STEP    4, STRESS PERIOD    2

 DRAWDOWN WILL BE SAVED ON UNIT   52 AT END OF TIME STEP    4, STRESS PERIOD    2
1
  VOLUMETRIC BUDGET FOR ENTIRE MODEL AT END OF TIME STEP    4, STRESS PERIOD   2
  ------------------------------------------------------------------------------

     CUMULATIVE VOLUMES      L**3       RATES FOR THIS TIME STEP      L**3/T
     ------------------                 ------------------------

           IN:                                      IN:
           ---                                      ---
             STORAGE =      122088.5234               STORAGE =        4488.4565
       CONSTANT HEAD =           0.0000         CONSTANT HEAD =           0.0000
               WELLS =           0.0000                 WELLS =           0.0000
     HEAD DEP BOUNDS =       3.0711E-03       HEAD DEP BOUNDS =       1.9334E-03

            TOTAL IN =      122088.5234              TOTAL IN =        4488.4585

          OUT:                                     OUT:
          ----                                     ----
             STORAGE =           0.0000               STORAGE =           0.0000
       CONSTANT HEAD =           0.0000         CONSTANT HEAD =           0.0000
               WELLS =           0.0000                 WELLS =           0.0000
     HEAD DEP BOUNDS =      122088.5234       HEAD DEP BOUNDS =        4488.4531

           TOTAL OUT =      122088.5234             TOTAL OUT =        4488.4531

            IN - OUT =           0.0000              IN - OUT =       5.3711E-03

 PERCENT DISCREPANCY =           0.00     PERCENT DISCREPANCY =           0.00






         TIME SUMMARY AT END OF TIME STEP    4 IN STRESS PERIOD    2
                    SECONDS     MINUTES      HOURS       DAYS        YEARS
                    -----------------------------------------------------------
   TIME STEP LENGTH  86400.      1440.0      24.000      1.0000     2.73785E-03
 STRESS PERIOD TIME 3.45600E+05  5760.0      96.000      4.0000     1.09514E-02
         TOTAL TIME 4.32000E+05  7200.0      120.00      5.0000     1.36893E-02
1
 
 SOLVING FOR HEAD 

 OUTPUT CONTROL FOR STRESS PERIOD    2   TIME STEP    5
    SAVE HEAD FOR ALL LAYERS
    SAVE DRAWDOWN FOR ALL LAYERS
    SAVE BUDGET
    PRINT HEAD FOR ALL LAYERS
    PRINT BUDGET
 UBDSV1 SAVING "         STORAGE" ON UNIT  53 AT TIME STEP  5, STRESS PERIOD   2
 UBDSV2 SAVING "   CONSTANT HEAD" ON UNIT  53 AT TIME STEP  5, STRESS PERIOD   2
 UBDSV1 SAVING "FLOW RIGHT FACE " ON UNIT  53 AT TIME STEP  5, STRESS PERIOD   2
 UBDSV1 SAVING "FLOW FRONT FACE " ON UNIT  53 AT TIME STEP  5, STRESS PERIOD   2
 UBDSV1 SAVING "FLOW LOWER FACE " ON UNIT  53 AT TIME STEP  5, STRESS PERIOD   2
1
              HEAD IN LAYER   1 AT END OF TIME STEP   5 IN STRESS PERIOD    2
  ---------------------------------------------------------------------------

            1           2           3           4           5           6           7           8           9          10
 ........................................................................................................................
   1    10.00       10.00       10.00      10.000       9.999       9.992       9.950       9.698       8.301      1.4519E-02
   2    10.00       10.00       10.00      10.000       9.999       9.992       9.950       9.698       8.301      1.4519E-02
   3    10.00       10.00       10.00      10.000       9.999       9.992       9.950       9.698       8.301      1.4519E-02
   4    10.00       10.00       10.00      10.000       9.999       9.992       9.950       9.698       8.301      1.4519E-02
   5    10.00       10.00       10.00      10.000       9.999       9.992       9.950       9.698       8.301      1.4519E-02
   6    10.00       10.00       10.00      10.000       9.999       9.992       9.950       9.698       8.301      1.4519E-02
   7    10.00       10.00       10.00      10.000       9.999       9.992       9.950       9.698       8.301      1.4519E-02
   8    10.00       10.00       10.00      10.000       9.999       9.992       9.950       9.698       8.301      1.4519E-02
   9    10.00       10.00       10.00      10.000       9.999       9.992       9.950       9.698       8.301      1.4519E-02
  10    10.00       10.00       10.00      10.000       9.999       9.992       9.950       9.698       8.301      1.4519E-02
1
              HEAD IN LAYER   2 AT END OF TIME STEP   5 IN STRESS PERIOD    2
  ---------------------------------------------------------------------------

            1           2           3           4           5           6           7           8           9          10
 ........................................................................................................................
   1    10.00       10.00       10.00      10.000       9.998       9.989       9.931       9.607       7.941      2.2290E-02
   2    10.00       10.00       10.00      10.000       9.998       9.989       9.931       9.607       7.941      2.2290E-02
   3    10.00       10.00       10.00      10.000       9.998       9.989       9.931       9.607       7.941      2.2290E-02
   4    10.00       10.00       10.00      10.000       9.998       9.989       9.931       9.607       7.941      2.2290E-02
   5    10.00       10.00       10.00      10.000       9.998       9.989       9.931       9.607       7.941      2.2290E-02
   6    10.00       10.00       10.00      10.000       9.998       9.989       9.931       9.607       7.941      2.2290E-02
   7    10.00       10.00       10.00      10.000       9.998       9.989       9.931       9.607       7.941      2.2290E-02
   8    10.00       10.00       10.00      10.000       9.998       9.989       9.931       9.607       7.941      2.2290E-02
   9    10.00       10.00       10.00      10.000       9.998       9.989       9.931       9.607       7.941      2.2290E-02
  10    10.00       10.00       10.00      10.000       9.998       9.989       9.931       9.607       7.941      2.2290E-02
1
              HEAD IN LAYER   3 AT END OF TIME STEP   5 IN STRESS PERIOD    2
  ---------------------------------------------------------------------------

            1           2           3           4           5           6           7           8           9          10
 ........................................................................................................................
   1    10.00       10.00       10.00      10.000       9.998       9.986       9.918       9.543       7.695      2.2906E-02
   2    10.00       10.00       10.00      10.000       9.998       9.986       9.918       9.543       7.695      2.2906E-02
   3    10.00       10.00       10.00      10.000       9.998       9.986       9.918       9.543       7.695      2.2906E-02
   4    10.00       10.00       10.00      10.000       9.998       9.986       9.918       9.543       7.695      2.2906E-02
   5    10.00       10.00       10.00      10.000       9.998       9.986       9.918       9.543       7.695      2.2906E-02
   6    10.00       10.00       10.00      10.000       9.998       9.986       9.918       9.543       7.695      2.2906E-02
   7    10.00       10.00       10.00      10.000       9.998       9.986       9.918       9.543       7.695      2.2906E-02
   8    10.00       10.00       10.00      10.000       9.998       9.986       9.918       9.543       7.695      2.2906E-02
   9    10.00       10.00       10.00      10.000       9.998       9.986       9.918       9.543       7.695      2.2906E-02
  10    10.00       10.00       10.00      10.000       9.998       9.986       9.918       9.543       7.695      2.2906E-02
1
              HEAD IN LAYER   4 AT END OF TIME STEP   5 IN STRESS PERIOD    2
  ---------------------------------------------------------------------------

            1           2           3           4           5           6           7           8           9          10
 ........................................................................................................................
   1    10.00       10.00      10.000      10.000       9.998       9.985       9.911       9.511       7.574      2.2685E-02
   2    10.00       10.00      10.000      10.000       9.998       9.985       9.911       9.511       7.574      2.2685E-02
   3    10.00       10.00      10.000      10.000       9.998       9.985       9.911       9.511       7.574      2.2685E-02
   4    10.00       10.00      10.000      10.000       9.998       9.985       9.911       9.511       7.574      2.2685E-02
   5    10.00       10.00      10.000      10.000       9.998       9.985       9.911       9.511       7.574      2.2685E-02
   6    10.00       10.00      10.000      10.000       9.998       9.985       9.911       9.511       7.574      2.2685E-02
   7    10.00       10.00      10.000      10.000       9.998       9.985       9.911       9.511       7.574      2.2685E-02
   8    10.00       10.00      10.000      10.000       9.998       9.985       9.911       9.511       7.574      2.2685E-02
   9    10.00       10.00      10.000      10.000       9.998       9.985       9.911       9.511       7.574      2.2685E-02
  10    10.00       10.00      10.000      10.000       9.998       9.985       9.911       9.511       7.574      2.2685E-02

 HEAD WILL BE SAVED ON UNIT   51 AT END OF TIME STEP    5, STRESS PERIOD    2

 DRAWDOWN WILL BE SAVED ON UNIT   52 AT END OF TIME STEP    5, STRESS PERIOD    2
1
  VOLUMETRIC BUDGET FOR ENTIRE MODEL AT END OF TIME STEP    5, STRESS PERIOD   2
  ------------------------------------------------------------------------------

     CUMULATIVE VOLUMES      L**3       RATES FOR THIS TIME STEP      L**3/T
     ------------------                 ------------------------

           IN:                                      IN:
           ---                                      ---
             STORAGE =      126208.4766               STORAGE =        4119.9526
       CONSTANT HEAD =           0.0000         CONSTANT HEAD =           0.0000
               WELLS =           0.0000                 WELLS =           0.0000
     HEAD DEP BOUNDS =       6.6470E-03       HEAD DEP BOUNDS =       3.5759E-03

            TOTAL IN =      126208.4844              TOTAL IN =        4119.9561

          OUT:                                     OUT:
          ----                                     ----
             STORAGE =           0.0000               STORAGE =           0.0000
       CONSTANT HEAD =           0.0000         CONSTANT HEAD =           0.0000
               WELLS =           0.0000                 WELLS =           0.0000
     HEAD DEP BOUNDS =      126208.4922       HEAD DEP BOUNDS =        4119.9683

           TOTAL OUT =      126208.4922             TOTAL OUT =        4119.9683

            IN - OUT =      -7.8125E-03              IN - OUT =      -1.2207E-02

 PERCENT DISCREPANCY =          -0.00     PERCENT DISCREPANCY =          -0.00






         TIME SUMMARY AT END OF TIME STEP    5 IN STRESS PERIOD    2
                    SECONDS     MINUTES      HOURS       DAYS        YEARS
                    -----------------------------------------------------------
   TIME STEP LENGTH  86400.      1440.0      24.000      1.0000     2.73785E-03
 STRESS PERIOD TIME 4.32000E+05  7200.0      120.00      5.0000     1.36893E-02
         TOTAL TIME 5.18400E+05  8640.0      144.00      6.0000     1.64271E-02
1
 
 SOLVING FOR HEAD 

 OUTPUT CONTROL FOR STRESS PERIOD    2   TIME STEP    6
    SAVE HEAD FOR ALL LAYERS
    SAVE DRAWDOWN FOR ALL LAYERS
    SAVE BUDGET
    PRINT HEAD FOR ALL LAYERS
    PRINT BUDGET
 UBDSV1 SAVING "         STORAGE" ON UNIT  53 AT TIME STEP  6, STRESS PERIOD   2
 UBDSV2 SAVING "   CONSTANT HEAD" ON UNIT  53 AT TIME STEP  6, STRESS PERIOD   2
 UBDSV1 SAVING "FLOW RIGHT FACE " ON UNIT  53 AT TIME STEP  6, STRESS PERIOD   2
 UBDSV1 SAVING "FLOW FRONT FACE " ON UNIT  53 AT TIME STEP  6, STRESS PERIOD   2
 UBDSV1 SAVING "FLOW LOWER FACE " ON UNIT  53 AT TIME STEP  6, STRESS PERIOD   2
1
              HEAD IN LAYER   1 AT END OF TIME STEP   6 IN STRESS PERIOD    2
  ---------------------------------------------------------------------------

            1           2           3           4           5           6           7           8           9          10
 ........................................................................................................................
   1    10.00       10.00       10.00      10.000       9.998       9.989       9.932       9.616       8.027      1.3433E-02
   2    10.00       10.00       10.00      10.000       9.998       9.989       9.932       9.616       8.027      1.3433E-02
   3    10.00       10.00       10.00      10.000       9.998       9.989       9.932       9.616       8.027      1.3433E-02
   4    10.00       10.00       10.00      10.000       9.998       9.989       9.932       9.616       8.027      1.3433E-02
   5    10.00       10.00       10.00      10.000       9.998       9.989       9.932       9.616       8.027      1.3433E-02
   6    10.00       10.00       10.00      10.000       9.998       9.989       9.932       9.616       8.027      1.3433E-02
   7    10.00       10.00       10.00      10.000       9.998       9.989       9.932       9.616       8.027      1.3433E-02
   8    10.00       10.00       10.00      10.000       9.998       9.989       9.932       9.616       8.027      1.3433E-02
   9    10.00       10.00       10.00      10.000       9.998       9.989       9.932       9.616       8.027      1.3433E-02
  10    10.00       10.00       10.00      10.000       9.998       9.989       9.932       9.616       8.027      1.3433E-02
1
              HEAD IN LAYER   2 AT END OF TIME STEP   6 IN STRESS PERIOD    2
  ---------------------------------------------------------------------------

            1           2           3           4           5           6           7           8           9          10
 ........................................................................................................................
   1    10.00       10.00      10.000      10.000       9.997       9.984       9.910       9.520       7.694      2.1500E-02
   2    10.00       10.00      10.000      10.000       9.997       9.984       9.910       9.520       7.694      2.1500E-02
   3    10.00       10.00      10.000      10.000       9.997       9.984       9.910       9.520       7.694      2.1500E-02
   4    10.00       10.00      10.000      10.000       9.997       9.984       9.910       9.520       7.694      2.1500E-02
   5    10.00       10.00      10.000      10.000       9.997       9.984       9.910       9.520       7.694      2.1500E-02
   6    10.00       10.00      10.000      10.000       9.997       9.984       9.910       9.520       7.694      2.1500E-02
   7    10.00       10.00      10.000      10.000       9.997       9.984       9.910       9.520       7.694      2.1500E-02
   8    10.00       10.00      10.000      10.000       9.997       9.984       9.910       9.520       7.694      2.1500E-02
   9    10.00       10.00      10.000      10.000       9.997       9.984       9.910       9.520       7.694      2.1500E-02
  10    10.00       10.00      10.000      10.000       9.997       9.984       9.910       9.520       7.694      2.1500E-02
1
              HEAD IN LAYER   3 AT END OF TIME STEP   6 IN STRESS PERIOD    2
  ---------------------------------------------------------------------------

            1           2           3           4           5           6           7           8           9          10
 ........................................................................................................................
   1    10.00       10.00      10.000       9.999       9.997       9.981       9.895       9.453       7.463      2.2204E-02
   2    10.00       10.00      10.000       9.999       9.997       9.981       9.895       9.453       7.463      2.2204E-02
   3    10.00       10.00      10.000       9.999       9.997       9.981       9.895       9.453       7.463      2.2204E-02
   4    10.00       10.00      10.000       9.999       9.997       9.981       9.895       9.453       7.463      2.2204E-02
   5    10.00       10.00      10.000       9.999       9.997       9.981       9.895       9.453       7.463      2.2204E-02
   6    10.00       10.00      10.000       9.999       9.997       9.981       9.895       9.453       7.463      2.2204E-02
   7    10.00       10.00      10.000       9.999       9.997       9.981       9.895       9.453       7.463      2.2204E-02
   8    10.00       10.00      10.000       9.999       9.997       9.981       9.895       9.453       7.463      2.2204E-02
   9    10.00       10.00      10.000       9.999       9.997       9.981       9.895       9.453       7.463      2.2204E-02
  10    10.00       10.00      10.000       9.999       9.997       9.981       9.895       9.453       7.463      2.2204E-02
1
              HEAD IN LAYER   4 AT END OF TIME STEP   6 IN STRESS PERIOD    2
  ---------------------------------------------------------------------------

            1           2           3           4           5           6           7           8           9          10
 ........................................................................................................................
   1    10.00       10.00      10.000       9.999       9.997       9.980       9.887       9.419       7.350      2.2011E-02
   2    10.00       10.00      10.000       9.999       9.997       9.980       9.887       9.419       7.350      2.2011E-02
   3    10.00       10.00      10.000       9.999       9.997       9.980       9.887       9.419       7.350      2.2011E-02
   4    10.00       10.00      10.000       9.999       9.997       9.980       9.887       9.419       7.350      2.2011E-02
   5    10.00       10.00      10.000       9.999       9.997       9.980       9.887       9.419       7.350      2.2011E-02
   6    10.00       10.00      10.000       9.999       9.997       9.980       9.887       9.419       7.350      2.2011E-02
   7    10.00       10.00      10.000       9.999       9.997       9.980       9.887       9.419       7.350      2.2011E-02
   8    10.00       10.00      10.000       9.999       9.997       9.980       9.887       9.419       7.350      2.2011E-02
   9    10.00       10.00      10.000       9.999       9.997       9.980       9.887       9.419       7.350      2.2011E-02
  10    10.00       10.00      10.000       9.999       9.997       9.980       9.887       9.419       7.350      2.2011E-02

 HEAD WILL BE SAVED ON UNIT   51 AT END OF TIME STEP    6, STRESS PERIOD    2

 DRAWDOWN WILL BE SAVED ON UNIT   52 AT END OF TIME STEP    6, STRESS PERIOD    2
1
  VOLUMETRIC BUDGET FOR ENTIRE MODEL AT END OF TIME STEP    6, STRESS PERIOD   2
  ------------------------------------------------------------------------------

     CUMULATIVE VOLUMES      L**3       RATES FOR THIS TIME STEP      L**3/T
     ------------------                 ------------------------

           IN:                                      IN:
           ---                                      ---
             STORAGE =      130165.8828               STORAGE =        3957.4070
       CONSTANT HEAD =           0.0000         CONSTANT HEAD =           0.0000
               WELLS =           0.0000                 WELLS =           0.0000
     HEAD DEP BOUNDS =       1.2778E-02       HEAD DEP BOUNDS =       6.1314E-03

            TOTAL IN =      130165.8984              TOTAL IN =        3957.4131

          OUT:                                     OUT:
          ----                                     ----
             STORAGE =           0.0000               STORAGE =           0.0000
       CONSTANT HEAD =           0.0000         CONSTANT HEAD =           0.0000
               WELLS =           0.0000                 WELLS =           0.0000
     HEAD DEP BOUNDS =      130165.9062       HEAD DEP BOUNDS =        3957.4109

           TOTAL OUT =      130165.9062             TOTAL OUT =        3957.4109

            IN - OUT =      -7.8125E-03              IN - OUT =       2.1973E-03

 PERCENT DISCREPANCY =          -0.00     PERCENT DISCREPANCY =           0.00






         TIME SUMMARY AT END OF TIME STEP    6 IN STRESS PERIOD    2
                    SECONDS     MINUTES      HOURS       DAYS        YEARS
                    -----------------------------------------------------------
   TIME STEP LENGTH  86400.      1440.0      24.000      1.0000     2.73785E-03
 STRESS PERIOD TIME 5.18400E+05  8640.0      144.00      6.0000     1.64271E-02
         TOTAL TIME 6.04800E+05  10080.      168.00      7.0000     1.91650E-02
1
 
 SOLVING FOR HEAD 

 OUTPUT CONTROL FOR STRESS PERIOD    2   TIME STEP    7
    SAVE HEAD FOR ALL LAYERS
    SAVE DRAWDOWN FOR ALL LAYERS
    SAVE BUDGET
    PRINT HEAD FOR ALL LAYERS
    PRINT BUDGET
 UBDSV1 SAVING "         STORAGE" ON UNIT  53 AT TIME STEP  7, STRESS PERIOD   2
 UBDSV2 SAVING "   CONSTANT HEAD" ON UNIT  53 AT TIME STEP  7, STRESS PERIOD   2
 UBDSV1 SAVING "FLOW RIGHT FACE " ON UNIT  53 AT TIME STEP  7, STRESS PERIOD   2
 UBDSV1 SAVING "FLOW FRONT FACE " ON UNIT  53 AT TIME STEP  7, STRESS PERIOD   2
 UBDSV1 SAVING "FLOW LOWER FACE " ON UNIT  53 AT TIME STEP  7, STRESS PERIOD   2
1
              HEAD IN LAYER   1 AT END OF TIME STEP   7 IN STRESS PERIOD    2
  ---------------------------------------------------------------------------

            1           2           3           4           5           6           7           8           9          10
 ........................................................................................................................
   1    10.00       10.00      10.000      10.000       9.997       9.984       9.911       9.530       7.772      1.2875E-02
   2    10.00       10.00      10.000      10.000       9.997       9.984       9.911       9.530       7.772      1.2875E-02
   3    10.00       10.00      10.000      10.000       9.997       9.984       9.911       9.530       7.772      1.2875E-02
   4    10.00       10.00      10.000      10.000       9.997       9.984       9.911       9.530       7.772      1.2875E-02
   5    10.00       10.00      10.000      10.000       9.997       9.984       9.911       9.530       7.772      1.2875E-02
   6    10.00       10.00      10.000      10.000       9.997       9.984       9.911       9.530       7.772      1.2875E-02
   7    10.00       10.00      10.000      10.000       9.997       9.984       9.911       9.530       7.772      1.2875E-02
   8    10.00       10.00      10.000      10.000       9.997       9.984       9.911       9.530       7.772      1.2875E-02
   9    10.00       10.00      10.000      10.000       9.997       9.984       9.911       9.530       7.772      1.2875E-02
  10    10.00       10.00      10.000      10.000       9.997       9.984       9.911       9.530       7.772      1.2875E-02
1
              HEAD IN LAYER   2 AT END OF TIME STEP   7 IN STRESS PERIOD    2
  ---------------------------------------------------------------------------

            1           2           3           4           5           6           7           8           9          10
 ........................................................................................................................
   1    10.00       10.00      10.000       9.999       9.996       9.979       9.886       9.431       7.462      2.0833E-02
   2    10.00       10.00      10.000       9.999       9.996       9.979       9.886       9.431       7.462      2.0833E-02
   3    10.00       10.00      10.000       9.999       9.996       9.979       9.886       9.431       7.462      2.0833E-02
   4    10.00       10.00      10.000       9.999       9.996       9.979       9.886       9.431       7.462      2.0833E-02
   5    10.00       10.00      10.000       9.999       9.996       9.979       9.886       9.431       7.462      2.0833E-02
   6    10.00       10.00      10.000       9.999       9.996       9.979       9.886       9.431       7.462      2.0833E-02
   7    10.00       10.00      10.000       9.999       9.996       9.979       9.886       9.431       7.462      2.0833E-02
   8    10.00       10.00      10.000       9.999       9.996       9.979       9.886       9.431       7.462      2.0833E-02
   9    10.00       10.00      10.000       9.999       9.996       9.979       9.886       9.431       7.462      2.0833E-02
  10    10.00       10.00      10.000       9.999       9.996       9.979       9.886       9.431       7.462      2.0833E-02
1
              HEAD IN LAYER   3 AT END OF TIME STEP   7 IN STRESS PERIOD    2
  ---------------------------------------------------------------------------

            1           2           3           4           5           6           7           8           9          10
 ........................................................................................................................
   1    10.00       10.00      10.000       9.999       9.996       9.975       9.869       9.362       7.246      2.1556E-02
   2    10.00       10.00      10.000       9.999       9.996       9.975       9.869       9.362       7.246      2.1556E-02
   3    10.00       10.00      10.000       9.999       9.996       9.975       9.869       9.362       7.246      2.1556E-02
   4    10.00       10.00      10.000       9.999       9.996       9.975       9.869       9.362       7.246      2.1556E-02
   5    10.00       10.00      10.000       9.999       9.996       9.975       9.869       9.362       7.246      2.1556E-02
   6    10.00       10.00      10.000       9.999       9.996       9.975       9.869       9.362       7.246      2.1556E-02
   7    10.00       10.00      10.000       9.999       9.996       9.975       9.869       9.362       7.246      2.1556E-02
   8    10.00       10.00      10.000       9.999       9.996       9.975       9.869       9.362       7.246      2.1556E-02
   9    10.00       10.00      10.000       9.999       9.996       9.975       9.869       9.362       7.246      2.1556E-02
  10    10.00       10.00      10.000       9.999       9.996       9.975       9.869       9.362       7.246      2.1556E-02
1
              HEAD IN LAYER   4 AT END OF TIME STEP   7 IN STRESS PERIOD    2
  ---------------------------------------------------------------------------

            1           2           3           4           5           6           7           8           9          10
 ........................................................................................................................
   1    10.00       10.00      10.000       9.999       9.995       9.973       9.860       9.326       7.140      2.1381E-02
   2    10.00       10.00      10.000       9.999       9.995       9.973       9.860       9.326       7.140      2.1381E-02
   3    10.00       10.00      10.000       9.999       9.995       9.973       9.860       9.326       7.140      2.1381E-02
   4    10.00       10.00      10.000       9.999       9.995       9.973       9.860       9.326       7.140      2.1381E-02
   5    10.00       10.00      10.000       9.999       9.995       9.973       9.860       9.326       7.140      2.1381E-02
   6    10.00       10.00      10.000       9.999       9.995       9.973       9.860       9.326       7.140      2.1381E-02
   7    10.00       10.00      10.000       9.999       9.995       9.973       9.860       9.326       7.140      2.1381E-02
   8    10.00       10.00      10.000       9.999       9.995       9.973       9.860       9.326       7.140      2.1381E-02
   9    10.00       10.00      10.000       9.999       9.995       9.973       9.860       9.326       7.140      2.1381E-02
  10    10.00       10.00      10.000       9.999       9.995       9.973       9.860       9.326       7.140      2.1381E-02

 HEAD WILL BE SAVED ON UNIT   51 AT END OF TIME STEP    7, STRESS PERIOD    2

 DRAWDOWN WILL BE SAVED ON UNIT   52 AT END OF TIME STEP    7, STRESS PERIOD    2
1
  VOLUMETRIC BUDGET FOR ENTIRE MODEL AT END OF TIME STEP    7, STRESS PERIOD   2
  ------------------------------------------------------------------------------

     CUMULATIVE VOLUMES      L**3       RATES FOR THIS TIME STEP      L**3/T
     ------------------                 ------------------------

           IN:                                      IN:
           ---                                      ---
             STORAGE =      133998.0781               STORAGE =        3832.1914
       CONSTANT HEAD =           0.0000         CONSTANT HEAD =           0.0000
               WELLS =           0.0000                 WELLS =           0.0000
     HEAD DEP BOUNDS =       2.2546E-02       HEAD DEP BOUNDS =       9.7673E-03

            TOTAL IN =      133998.0938              TOTAL IN =        3832.2012

          OUT:                                     OUT:
          ----                                     ----
             STORAGE =           0.0000               STORAGE =           0.0000
       CONSTANT HEAD =           0.0000         CONSTANT HEAD =           0.0000
               WELLS =           0.0000                 WELLS =           0.0000
     HEAD DEP BOUNDS =      133998.1094       HEAD DEP BOUNDS =        3832.2092

           TOTAL OUT =      133998.1094             TOTAL OUT =        3832.2092

            IN - OUT =      -1.5625E-02              IN - OUT =      -8.0566E-03

 PERCENT DISCREPANCY =          -0.00     PERCENT DISCREPANCY =          -0.00






         TIME SUMMARY AT END OF TIME STEP    7 IN STRESS PERIOD    2
                    SECONDS     MINUTES      HOURS       DAYS        YEARS
                    -----------------------------------------------------------
   TIME STEP LENGTH  86400.      1440.0      24.000      1.0000     2.73785E-03
 STRESS PERIOD TIME 6.04800E+05  10080.      168.00      7.0000     1.91650E-02
         TOTAL TIME 6.91200E+05  11520.      192.00      8.0000     2.19028E-02
1
 
 SOLVING FOR HEAD 

 OUTPUT CONTROL FOR STRESS PERIOD    2   TIME STEP    8
    SAVE HEAD FOR ALL LAYERS
    SAVE DRAWDOWN FOR ALL LAYERS
    SAVE BUDGET
    PRINT HEAD FOR ALL LAYERS
    PRINT BUDGET
 UBDSV1 SAVING "         STORAGE" ON UNIT  53 AT TIME STEP  8, STRESS PERIOD   2
 UBDSV2 SAVING "   CONSTANT HEAD" ON UNIT  53 AT TIME STEP  8, STRESS PERIOD   2
 UBDSV1 SAVING "FLOW RIGHT FACE " ON UNIT  53 AT TIME STEP  8, STRESS PERIOD   2
 UBDSV1 SAVING "FLOW FRONT FACE " ON UNIT  53 AT TIME STEP  8, STRESS PERIOD   2
 UBDSV1 SAVING "FLOW LOWER FACE " ON UNIT  53 AT TIME STEP  8, STRESS PERIOD   2
1
              HEAD IN LAYER   1 AT END OF TIME STEP   8 IN STRESS PERIOD    2
  ---------------------------------------------------------------------------

            1           2           3           4           5           6           7           8           9          10
 ........................................................................................................................
   1    10.00       10.00      10.000       9.999       9.996       9.979       9.887       9.442       7.534      1.2422E-02
   2    10.00       10.00      10.000       9.999       9.996       9.979       9.887       9.442       7.534      1.2422E-02
   3    10.00       10.00      10.000       9.999       9.996       9.979       9.887       9.442       7.534      1.2422E-02
   4    10.00       10.00      10.000       9.999       9.996       9.979       9.887       9.442       7.534      1.2422E-02
   5    10.00       10.00      10.000       9.999       9.996       9.979       9.887       9.442       7.534      1.2422E-02
   6    10.00       10.00      10.000       9.999       9.996       9.979       9.887       9.442       7.534      1.2422E-02
   7    10.00       10.00      10.000       9.999       9.996       9.979       9.887       9.442       7.534      1.2422E-02
   8    10.00       10.00      10.000       9.999       9.996       9.979       9.887       9.442       7.534      1.2422E-02
   9    10.00       10.00      10.000       9.999       9.996       9.979       9.887       9.442       7.534      1.2422E-02
  10    10.00       10.00      10.000       9.999       9.996       9.979       9.887       9.442       7.534      1.2422E-02
1
              HEAD IN LAYER   2 AT END OF TIME STEP   8 IN STRESS PERIOD    2
  ---------------------------------------------------------------------------

            1           2           3           4           5           6           7           8           9          10
 ........................................................................................................................
   1    10.00       10.00      10.000       9.999       9.995       9.973       9.860       9.339       7.246      2.0219E-02
   2    10.00       10.00      10.000       9.999       9.995       9.973       9.860       9.339       7.246      2.0219E-02
   3    10.00       10.00      10.000       9.999       9.995       9.973       9.860       9.339       7.246      2.0219E-02
   4    10.00       10.00      10.000       9.999       9.995       9.973       9.860       9.339       7.246      2.0219E-02
   5    10.00       10.00      10.000       9.999       9.995       9.973       9.860       9.339       7.246      2.0219E-02
   6    10.00       10.00      10.000       9.999       9.995       9.973       9.860       9.339       7.246      2.0219E-02
   7    10.00       10.00      10.000       9.999       9.995       9.973       9.860       9.339       7.246      2.0219E-02
   8    10.00       10.00      10.000       9.999       9.995       9.973       9.860       9.339       7.246      2.0219E-02
   9    10.00       10.00      10.000       9.999       9.995       9.973       9.860       9.339       7.246      2.0219E-02
  10    10.00       10.00      10.000       9.999       9.995       9.973       9.860       9.339       7.246      2.0219E-02
1
              HEAD IN LAYER   3 AT END OF TIME STEP   8 IN STRESS PERIOD    2
  ---------------------------------------------------------------------------

            1           2           3           4           5           6           7           8           9          10
 ........................................................................................................................
   1    10.00       10.00      10.000       9.999       9.994       9.968       9.840       9.268       7.043      2.0950E-02
   2    10.00       10.00      10.000       9.999       9.994       9.968       9.840       9.268       7.043      2.0950E-02
   3    10.00       10.00      10.000       9.999       9.994       9.968       9.840       9.268       7.043      2.0950E-02
   4    10.00       10.00      10.000       9.999       9.994       9.968       9.840       9.268       7.043      2.0950E-02
   5    10.00       10.00      10.000       9.999       9.994       9.968       9.840       9.268       7.043      2.0950E-02
   6    10.00       10.00      10.000       9.999       9.994       9.968       9.840       9.268       7.043      2.0950E-02
   7    10.00       10.00      10.000       9.999       9.994       9.968       9.840       9.268       7.043      2.0950E-02
   8    10.00       10.00      10.000       9.999       9.994       9.968       9.840       9.268       7.043      2.0950E-02
   9    10.00       10.00      10.000       9.999       9.994       9.968       9.840       9.268       7.043      2.0950E-02
  10    10.00       10.00      10.000       9.999       9.994       9.968       9.840       9.268       7.043      2.0950E-02
1
              HEAD IN LAYER   4 AT END OF TIME STEP   8 IN STRESS PERIOD    2
  ---------------------------------------------------------------------------

            1           2           3           4           5           6           7           8           9          10
 ........................................................................................................................
   1    10.00       10.00      10.000       9.999       9.994       9.966       9.831       9.232       6.943      2.0791E-02
   2    10.00       10.00      10.000       9.999       9.994       9.966       9.831       9.232       6.943      2.0791E-02
   3    10.00       10.00      10.000       9.999       9.994       9.966       9.831       9.232       6.943      2.0791E-02
   4    10.00       10.00      10.000       9.999       9.994       9.966       9.831       9.232       6.943      2.0791E-02
   5    10.00       10.00      10.000       9.999       9.994       9.966       9.831       9.232       6.943      2.0791E-02
   6    10.00       10.00      10.000       9.999       9.994       9.966       9.831       9.232       6.943      2.0791E-02
   7    10.00       10.00      10.000       9.999       9.994       9.966       9.831       9.232       6.943      2.0791E-02
   8    10.00       10.00      10.000       9.999       9.994       9.966       9.831       9.232       6.943      2.0791E-02
   9    10.00       10.00      10.000       9.999       9.994       9.966       9.831       9.232       6.943      2.0791E-02
  10    10.00       10.00      10.000       9.999       9.994       9.966       9.831       9.232       6.943      2.0791E-02

 HEAD WILL BE SAVED ON UNIT   51 AT END OF TIME STEP    8, STRESS PERIOD    2

 DRAWDOWN WILL BE SAVED ON UNIT   52 AT END OF TIME STEP    8, STRESS PERIOD    2
1
  VOLUMETRIC BUDGET FOR ENTIRE MODEL AT END OF TIME STEP    8, STRESS PERIOD   2
  ------------------------------------------------------------------------------

     CUMULATIVE VOLUMES      L**3       RATES FOR THIS TIME STEP      L**3/T
     ------------------                 ------------------------

           IN:                                      IN:
           ---                                      ---
             STORAGE =      137717.1250               STORAGE =        3719.0513
       CONSTANT HEAD =           0.0000         CONSTANT HEAD =           0.0000
               WELLS =           0.0000                 WELLS =           0.0000
     HEAD DEP BOUNDS =       3.7264E-02       HEAD DEP BOUNDS =       1.4718E-02

            TOTAL IN =      137717.1562              TOTAL IN =        3719.0659

          OUT:                                     OUT:
          ----                                     ----
             STORAGE =           0.0000               STORAGE =           0.0000
       CONSTANT HEAD =           0.0000         CONSTANT HEAD =           0.0000
               WELLS =           0.0000                 WELLS =           0.0000
     HEAD DEP BOUNDS =      137717.2031       HEAD DEP BOUNDS =        3719.0903

           TOTAL OUT =      137717.2031             TOTAL OUT =        3719.0903

            IN - OUT =      -4.6875E-02              IN - OUT =      -2.4414E-02

 PERCENT DISCREPANCY =          -0.00     PERCENT DISCREPANCY =          -0.00






         TIME SUMMARY AT END OF TIME STEP    8 IN STRESS PERIOD    2
                    SECONDS     MINUTES      HOURS       DAYS        YEARS
                    -----------------------------------------------------------
   TIME STEP LENGTH  86400.      1440.0      24.000      1.0000     2.73785E-03
 STRESS PERIOD TIME 6.91200E+05  11520.      192.00      8.0000     2.19028E-02
         TOTAL TIME 7.77600E+05  12960.      216.00      9.0000     2.46407E-02
1
 
 SOLVING FOR HEAD 

 OUTPUT CONTROL FOR STRESS PERIOD    2   TIME STEP    9
    SAVE HEAD FOR ALL LAYERS
    SAVE DRAWDOWN FOR ALL LAYERS
    SAVE BUDGET
    PRINT HEAD FOR ALL LAYERS
    PRINT BUDGET
 UBDSV1 SAVING "         STORAGE" ON UNIT  53 AT TIME STEP  9, STRESS PERIOD   2
 UBDSV2 SAVING "   CONSTANT HEAD" ON UNIT  53 AT TIME STEP  9, STRESS PERIOD   2
 UBDSV1 SAVING "FLOW RIGHT FACE " ON UNIT  53 AT TIME STEP  9, STRESS PERIOD   2
 UBDSV1 SAVING "FLOW FRONT FACE " ON UNIT  53 AT TIME STEP  9, STRESS PERIOD   2
 UBDSV1 SAVING "FLOW LOWER FACE " ON UNIT  53 AT TIME STEP  9, STRESS PERIOD   2
1
              HEAD IN LAYER   1 AT END OF TIME STEP   9 IN STRESS PERIOD    2
  ---------------------------------------------------------------------------

            1           2           3           4           5           6           7           8           9          10
 ........................................................................................................................
   1    10.00       10.00      10.000       9.999       9.995       9.973       9.861       9.351       7.313      1.2011E-02
   2    10.00       10.00      10.000       9.999       9.995       9.973       9.861       9.351       7.313      1.2011E-02
   3    10.00       10.00      10.000       9.999       9.995       9.973       9.861       9.351       7.313      1.2011E-02
   4    10.00       10.00      10.000       9.999       9.995       9.973       9.861       9.351       7.313      1.2011E-02
   5    10.00       10.00      10.000       9.999       9.995       9.973       9.861       9.351       7.313      1.2011E-02
   6    10.00       10.00      10.000       9.999       9.995       9.973       9.861       9.351       7.313      1.2011E-02
   7    10.00       10.00      10.000       9.999       9.995       9.973       9.861       9.351       7.313      1.2011E-02
   8    10.00       10.00      10.000       9.999       9.995       9.973       9.861       9.351       7.313      1.2011E-02
   9    10.00       10.00      10.000       9.999       9.995       9.973       9.861       9.351       7.313      1.2011E-02
  10    10.00       10.00      10.000       9.999       9.995       9.973       9.861       9.351       7.313      1.2011E-02
1
              HEAD IN LAYER   2 AT END OF TIME STEP   9 IN STRESS PERIOD    2
  ---------------------------------------------------------------------------

            1           2           3           4           5           6           7           8           9          10
 ........................................................................................................................
   1    10.00       10.00      10.000       9.999       9.993       9.965       9.831       9.247       7.044      1.9647E-02
   2    10.00       10.00      10.000       9.999       9.993       9.965       9.831       9.247       7.044      1.9647E-02
   3    10.00       10.00      10.000       9.999       9.993       9.965       9.831       9.247       7.044      1.9647E-02
   4    10.00       10.00      10.000       9.999       9.993       9.965       9.831       9.247       7.044      1.9647E-02
   5    10.00       10.00      10.000       9.999       9.993       9.965       9.831       9.247       7.044      1.9647E-02
   6    10.00       10.00      10.000       9.999       9.993       9.965       9.831       9.247       7.044      1.9647E-02
   7    10.00       10.00      10.000       9.999       9.993       9.965       9.831       9.247       7.044      1.9647E-02
   8    10.00       10.00      10.000       9.999       9.993       9.965       9.831       9.247       7.044      1.9647E-02
   9    10.00       10.00      10.000       9.999       9.993       9.965       9.831       9.247       7.044      1.9647E-02
  10    10.00       10.00      10.000       9.999       9.993       9.965       9.831       9.247       7.044      1.9647E-02
1
              HEAD IN LAYER   3 AT END OF TIME STEP   9 IN STRESS PERIOD    2
  ---------------------------------------------------------------------------

            1           2           3           4           5           6           7           8           9          10
 ........................................................................................................................
   1    10.00       10.00      10.000       9.999       9.992       9.960       9.810       9.174       6.853      2.0382E-02
   2    10.00       10.00      10.000       9.999       9.992       9.960       9.810       9.174       6.853      2.0382E-02
   3    10.00       10.00      10.000       9.999       9.992       9.960       9.810       9.174       6.853      2.0382E-02
   4    10.00       10.00      10.000       9.999       9.992       9.960       9.810       9.174       6.853      2.0382E-02
   5    10.00       10.00      10.000       9.999       9.992       9.960       9.810       9.174       6.853      2.0382E-02
   6    10.00       10.00      10.000       9.999       9.992       9.960       9.810       9.174       6.853      2.0382E-02
   7    10.00       10.00      10.000       9.999       9.992       9.960       9.810       9.174       6.853      2.0382E-02
   8    10.00       10.00      10.000       9.999       9.992       9.960       9.810       9.174       6.853      2.0382E-02
   9    10.00       10.00      10.000       9.999       9.992       9.960       9.810       9.174       6.853      2.0382E-02
  10    10.00       10.00      10.000       9.999       9.992       9.960       9.810       9.174       6.853      2.0382E-02
1
              HEAD IN LAYER   4 AT END OF TIME STEP   9 IN STRESS PERIOD    2
  ---------------------------------------------------------------------------

            1           2           3           4           5           6           7           8           9          10
 ........................................................................................................................
   1    10.00       10.00      10.000       9.998       9.992       9.958       9.799       9.138       6.759      2.0237E-02
   2    10.00       10.00      10.000       9.998       9.992       9.958       9.799       9.138       6.759      2.0237E-02
   3    10.00       10.00      10.000       9.998       9.992       9.958       9.799       9.138       6.759      2.0237E-02
   4    10.00       10.00      10.000       9.998       9.992       9.958       9.799       9.138       6.759      2.0237E-02
   5    10.00       10.00      10.000       9.998       9.992       9.958       9.799       9.138       6.759      2.0237E-02
   6    10.00       10.00      10.000       9.998       9.992       9.958       9.799       9.138       6.759      2.0237E-02
   7    10.00       10.00      10.000       9.998       9.992       9.958       9.799       9.138       6.759      2.0237E-02
   8    10.00       10.00      10.000       9.998       9.992       9.958       9.799       9.138       6.759      2.0237E-02
   9    10.00       10.00      10.000       9.998       9.992       9.958       9.799       9.138       6.759      2.0237E-02
  10    10.00       10.00      10.000       9.998       9.992       9.958       9.799       9.138       6.759      2.0237E-02

 HEAD WILL BE SAVED ON UNIT   51 AT END OF TIME STEP    9, STRESS PERIOD    2

 DRAWDOWN WILL BE SAVED ON UNIT   52 AT END OF TIME STEP    9, STRESS PERIOD    2
1
  VOLUMETRIC BUDGET FOR ENTIRE MODEL AT END OF TIME STEP    9, STRESS PERIOD   2
  ------------------------------------------------------------------------------

     CUMULATIVE VOLUMES      L**3       RATES FOR THIS TIME STEP      L**3/T
     ------------------                 ------------------------

           IN:                                      IN:
           ---                                      ---
             STORAGE =      141330.9062               STORAGE =        3613.7798
       CONSTANT HEAD =           0.0000         CONSTANT HEAD =           0.0000
               WELLS =           0.0000                 WELLS =           0.0000
     HEAD DEP BOUNDS =       5.8748E-02       HEAD DEP BOUNDS =       2.1484E-02

            TOTAL IN =      141330.9688              TOTAL IN =        3613.8013

          OUT:                                     OUT:
          ----                                     ----
             STORAGE =           0.0000               STORAGE =           0.0000
       CONSTANT HEAD =           0.0000         CONSTANT HEAD =           0.0000
               WELLS =           0.0000                 WELLS =           0.0000
     HEAD DEP BOUNDS =      141331.0156       HEAD DEP BOUNDS =        3613.8066

           TOTAL OUT =      141331.0156             TOTAL OUT =        3613.8066

            IN - OUT =      -4.6875E-02              IN - OUT =      -5.3711E-03

 PERCENT DISCREPANCY =          -0.00     PERCENT DISCREPANCY =          -0.00






         TIME SUMMARY AT END OF TIME STEP    9 IN STRESS PERIOD    2
                    SECONDS     MINUTES      HOURS       DAYS        YEARS
                    -----------------------------------------------------------
   TIME STEP LENGTH  86400.      1440.0      24.000      1.0000     2.73785E-03
 STRESS PERIOD TIME 7.77600E+05  12960.      216.00      9.0000     2.46407E-02
         TOTAL TIME 8.64000E+05  14400.      240.00      10.000     2.73785E-02
1
 
 SOLVING FOR HEAD 

 OUTPUT CONTROL FOR STRESS PERIOD    2   TIME STEP   10
    SAVE HEAD FOR ALL LAYERS
    SAVE DRAWDOWN FOR ALL LAYERS
    SAVE BUDGET
    PRINT HEAD FOR ALL LAYERS
    PRINT BUDGET
 UBDSV1 SAVING "         STORAGE" ON UNIT  53 AT TIME STEP 10, STRESS PERIOD   2
 UBDSV2 SAVING "   CONSTANT HEAD" ON UNIT  53 AT TIME STEP 10, STRESS PERIOD   2
 UBDSV1 SAVING "FLOW RIGHT FACE " ON UNIT  53 AT TIME STEP 10, STRESS PERIOD   2
 UBDSV1 SAVING "FLOW FRONT FACE " ON UNIT  53 AT TIME STEP 10, STRESS PERIOD   2
 UBDSV1 SAVING "FLOW LOWER FACE " ON UNIT  53 AT TIME STEP 10, STRESS PERIOD   2
1
              HEAD IN LAYER   1 AT END OF TIME STEP  10 IN STRESS PERIOD    2
  ---------------------------------------------------------------------------

            1           2           3           4           5           6           7           8           9          10
 ........................................................................................................................
   1    10.00       10.00      10.000       9.999       9.993       9.965       9.833       9.259       7.105      1.1629E-02
   2    10.00       10.00      10.000       9.999       9.993       9.965       9.833       9.259       7.105      1.1629E-02
   3    10.00       10.00      10.000       9.999       9.993       9.965       9.833       9.259       7.105      1.1629E-02
   4    10.00       10.00      10.000       9.999       9.993       9.965       9.833       9.259       7.105      1.1629E-02
   5    10.00       10.00      10.000       9.999       9.993       9.965       9.833       9.259       7.105      1.1629E-02
   6    10.00       10.00      10.000       9.999       9.993       9.965       9.833       9.259       7.105      1.1629E-02
   7    10.00       10.00      10.000       9.999       9.993       9.965       9.833       9.259       7.105      1.1629E-02
   8    10.00       10.00      10.000       9.999       9.993       9.965       9.833       9.259       7.105      1.1629E-02
   9    10.00       10.00      10.000       9.999       9.993       9.965       9.833       9.259       7.105      1.1629E-02
  10    10.00       10.00      10.000       9.999       9.993       9.965       9.833       9.259       7.105      1.1629E-02
1
              HEAD IN LAYER   2 AT END OF TIME STEP  10 IN STRESS PERIOD    2
  ---------------------------------------------------------------------------

            1           2           3           4           5           6           7           8           9          10
 ........................................................................................................................
   1    10.00       10.00      10.000       9.998       9.991       9.957       9.800       9.153       6.854      1.9110E-02
   2    10.00       10.00      10.000       9.998       9.991       9.957       9.800       9.153       6.854      1.9110E-02
   3    10.00       10.00      10.000       9.998       9.991       9.957       9.800       9.153       6.854      1.9110E-02
   4    10.00       10.00      10.000       9.998       9.991       9.957       9.800       9.153       6.854      1.9110E-02
   5    10.00       10.00      10.000       9.998       9.991       9.957       9.800       9.153       6.854      1.9110E-02
   6    10.00       10.00      10.000       9.998       9.991       9.957       9.800       9.153       6.854      1.9110E-02
   7    10.00       10.00      10.000       9.998       9.991       9.957       9.800       9.153       6.854      1.9110E-02
   8    10.00       10.00      10.000       9.998       9.991       9.957       9.800       9.153       6.854      1.9110E-02
   9    10.00       10.00      10.000       9.998       9.991       9.957       9.800       9.153       6.854      1.9110E-02
  10    10.00       10.00      10.000       9.998       9.991       9.957       9.800       9.153       6.854      1.9110E-02
1
              HEAD IN LAYER   3 AT END OF TIME STEP  10 IN STRESS PERIOD    2
  ---------------------------------------------------------------------------

            1           2           3           4           5           6           7           8           9          10
 ........................................................................................................................
   1    10.00      10.000      10.000       9.998       9.990       9.951       9.778       9.080       6.674      1.9848E-02
   2    10.00      10.000      10.000       9.998       9.990       9.951       9.778       9.080       6.674      1.9848E-02
   3    10.00      10.000      10.000       9.998       9.990       9.951       9.778       9.080       6.674      1.9848E-02
   4    10.00      10.000      10.000       9.998       9.990       9.951       9.778       9.080       6.674      1.9848E-02
   5    10.00      10.000      10.000       9.998       9.990       9.951       9.778       9.080       6.674      1.9848E-02
   6    10.00      10.000      10.000       9.998       9.990       9.951       9.778       9.080       6.674      1.9848E-02
   7    10.00      10.000      10.000       9.998       9.990       9.951       9.778       9.080       6.674      1.9848E-02
   8    10.00      10.000      10.000       9.998       9.990       9.951       9.778       9.080       6.674      1.9848E-02
   9    10.00      10.000      10.000       9.998       9.990       9.951       9.778       9.080       6.674      1.9848E-02
  10    10.00      10.000      10.000       9.998       9.990       9.951       9.778       9.080       6.674      1.9848E-02
1
              HEAD IN LAYER   4 AT END OF TIME STEP  10 IN STRESS PERIOD    2
  ---------------------------------------------------------------------------

            1           2           3           4           5           6           7           8           9          10
 ........................................................................................................................
   1    10.00      10.000      10.000       9.998       9.989       9.948       9.766       9.043       6.586      1.9717E-02
   2    10.00      10.000      10.000       9.998       9.989       9.948       9.766       9.043       6.586      1.9717E-02
   3    10.00      10.000      10.000       9.998       9.989       9.948       9.766       9.043       6.586      1.9717E-02
   4    10.00      10.000      10.000       9.998       9.989       9.948       9.766       9.043       6.586      1.9717E-02
   5    10.00      10.000      10.000       9.998       9.989       9.948       9.766       9.043       6.586      1.9717E-02
   6    10.00      10.000      10.000       9.998       9.989       9.948       9.766       9.043       6.586      1.9717E-02
   7    10.00      10.000      10.000       9.998       9.989       9.948       9.766       9.043       6.586      1.9717E-02
   8    10.00      10.000      10.000       9.998       9.989       9.948       9.766       9.043       6.586      1.9717E-02
   9    10.00      10.000      10.000       9.998       9.989       9.948       9.766       9.043       6.586      1.9717E-02
  10    10.00      10.000      10.000       9.998       9.989       9.948       9.766       9.043       6.586      1.9717E-02

 HEAD WILL BE SAVED ON UNIT   51 AT END OF TIME STEP   10, STRESS PERIOD    2

 DRAWDOWN WILL BE SAVED ON UNIT   52 AT END OF TIME STEP   10, STRESS PERIOD    2
1
  VOLUMETRIC BUDGET FOR ENTIRE MODEL AT END OF TIME STEP   10, STRESS PERIOD   2
  ------------------------------------------------------------------------------

     CUMULATIVE VOLUMES      L**3       RATES FOR THIS TIME STEP      L**3/T
     ------------------                 ------------------------

           IN:                                      IN:
           ---                                      ---
             STORAGE =      144846.0781               STORAGE =        3515.1646
       CONSTANT HEAD =           0.0000         CONSTANT HEAD =           0.0000
               WELLS =           0.0000                 WELLS =           0.0000
     HEAD DEP BOUNDS =       8.9228E-02       HEAD DEP BOUNDS =       3.0479E-02

            TOTAL IN =      144846.1719              TOTAL IN =        3515.1951

          OUT:                                     OUT:
          ----                                     ----
             STORAGE =           0.0000               STORAGE =           0.0000
       CONSTANT HEAD =           0.0000         CONSTANT HEAD =           0.0000
               WELLS =           0.0000                 WELLS =           0.0000
     HEAD DEP BOUNDS =      144846.2188       HEAD DEP BOUNDS =        3515.2014

           TOTAL OUT =      144846.2188             TOTAL OUT =        3515.2014

            IN - OUT =      -4.6875E-02              IN - OUT =      -6.3477E-03

 PERCENT DISCREPANCY =          -0.00     PERCENT DISCREPANCY =          -0.00






         TIME SUMMARY AT END OF TIME STEP   10 IN STRESS PERIOD    2
                    SECONDS     MINUTES      HOURS       DAYS        YEARS
                    -----------------------------------------------------------
   TIME STEP LENGTH  86400.      1440.0      24.000      1.0000     2.73785E-03
 STRESS PERIOD TIME 8.64000E+05  14400.      240.00      10.000     2.73785E-02
         TOTAL TIME 9.50400E+05  15840.      264.00      11.000     3.01164E-02
1
 
 SOLVING FOR HEAD 

 OUTPUT CONTROL FOR STRESS PERIOD    2   TIME STEP   11
    SAVE HEAD FOR ALL LAYERS
    SAVE DRAWDOWN FOR ALL LAYERS
    SAVE BUDGET
    PRINT HEAD FOR ALL LAYERS
    PRINT BUDGET
 UBDSV1 SAVING "         STORAGE" ON UNIT  53 AT TIME STEP 11, STRESS PERIOD   2
 UBDSV2 SAVING "   CONSTANT HEAD" ON UNIT  53 AT TIME STEP 11, STRESS PERIOD   2
 UBDSV1 SAVING "FLOW RIGHT FACE " ON UNIT  53 AT TIME STEP 11, STRESS PERIOD   2
 UBDSV1 SAVING "FLOW FRONT FACE " ON UNIT  53 AT TIME STEP 11, STRESS PERIOD   2
 UBDSV1 SAVING "FLOW LOWER FACE " ON UNIT  53 AT TIME STEP 11, STRESS PERIOD   2
1
              HEAD IN LAYER   1 AT END OF TIME STEP  11 IN STRESS PERIOD    2
  ---------------------------------------------------------------------------

            1           2           3           4           5           6           7           8           9          10
 ........................................................................................................................
   1    10.00      10.000      10.000       9.998       9.991       9.957       9.803       9.166       6.911      1.1272E-02
   2    10.00      10.000      10.000       9.998       9.991       9.957       9.803       9.166       6.911      1.1272E-02
   3    10.00      10.000      10.000       9.998       9.991       9.957       9.803       9.166       6.911      1.1272E-02
   4    10.00      10.000      10.000       9.998       9.991       9.957       9.803       9.166       6.911      1.1272E-02
   5    10.00      10.000      10.000       9.998       9.991       9.957       9.803       9.166       6.911      1.1272E-02
   6    10.00      10.000      10.000       9.998       9.991       9.957       9.803       9.166       6.911      1.1272E-02
   7    10.00      10.000      10.000       9.998       9.991       9.957       9.803       9.166       6.911      1.1272E-02
   8    10.00      10.000      10.000       9.998       9.991       9.957       9.803       9.166       6.911      1.1272E-02
   9    10.00      10.000      10.000       9.998       9.991       9.957       9.803       9.166       6.911      1.1272E-02
  10    10.00      10.000      10.000       9.998       9.991       9.957       9.803       9.166       6.911      1.1272E-02
1
              HEAD IN LAYER   2 AT END OF TIME STEP  11 IN STRESS PERIOD    2
  ---------------------------------------------------------------------------

            1           2           3           4           5           6           7           8           9          10
 ........................................................................................................................
   1    10.00      10.000      10.000       9.998       9.989       9.948       9.768       9.060       6.676      1.8606E-02
   2    10.00      10.000      10.000       9.998       9.989       9.948       9.768       9.060       6.676      1.8606E-02
   3    10.00      10.000      10.000       9.998       9.989       9.948       9.768       9.060       6.676      1.8606E-02
   4    10.00      10.000      10.000       9.998       9.989       9.948       9.768       9.060       6.676      1.8606E-02
   5    10.00      10.000      10.000       9.998       9.989       9.948       9.768       9.060       6.676      1.8606E-02
   6    10.00      10.000      10.000       9.998       9.989       9.948       9.768       9.060       6.676      1.8606E-02
   7    10.00      10.000      10.000       9.998       9.989       9.948       9.768       9.060       6.676      1.8606E-02
   8    10.00      10.000      10.000       9.998       9.989       9.948       9.768       9.060       6.676      1.8606E-02
   9    10.00      10.000      10.000       9.998       9.989       9.948       9.768       9.060       6.676      1.8606E-02
  10    10.00      10.000      10.000       9.998       9.989       9.948       9.768       9.060       6.676      1.8606E-02
1
              HEAD IN LAYER   3 AT END OF TIME STEP  11 IN STRESS PERIOD    2
  ---------------------------------------------------------------------------

            1           2           3           4           5           6           7           8           9          10
 ........................................................................................................................
   1    10.00      10.000      10.000       9.998       9.988       9.941       9.744       8.986       6.506      1.9347E-02
   2    10.00      10.000      10.000       9.998       9.988       9.941       9.744       8.986       6.506      1.9347E-02
   3    10.00      10.000      10.000       9.998       9.988       9.941       9.744       8.986       6.506      1.9347E-02
   4    10.00      10.000      10.000       9.998       9.988       9.941       9.744       8.986       6.506      1.9347E-02
   5    10.00      10.000      10.000       9.998       9.988       9.941       9.744       8.986       6.506      1.9347E-02
   6    10.00      10.000      10.000       9.998       9.988       9.941       9.744       8.986       6.506      1.9347E-02
   7    10.00      10.000      10.000       9.998       9.988       9.941       9.744       8.986       6.506      1.9347E-02
   8    10.00      10.000      10.000       9.998       9.988       9.941       9.744       8.986       6.506      1.9347E-02
   9    10.00      10.000      10.000       9.998       9.988       9.941       9.744       8.986       6.506      1.9347E-02
  10    10.00      10.000      10.000       9.998       9.988       9.941       9.744       8.986       6.506      1.9347E-02
1
              HEAD IN LAYER   4 AT END OF TIME STEP  11 IN STRESS PERIOD    2
  ---------------------------------------------------------------------------

            1           2           3           4           5           6           7           8           9          10
 ........................................................................................................................
   1    10.00      10.000       9.999       9.997       9.987       9.938       9.731       8.949       6.423      1.9227E-02
   2    10.00      10.000       9.999       9.997       9.987       9.938       9.731       8.949       6.423      1.9227E-02
   3    10.00      10.000       9.999       9.997       9.987       9.938       9.731       8.949       6.423      1.9227E-02
   4    10.00      10.000       9.999       9.997       9.987       9.938       9.731       8.949       6.423      1.9227E-02
   5    10.00      10.000       9.999       9.997       9.987       9.938       9.731       8.949       6.423      1.9227E-02
   6    10.00      10.000       9.999       9.997       9.987       9.938       9.731       8.949       6.423      1.9227E-02
   7    10.00      10.000       9.999       9.997       9.987       9.938       9.731       8.949       6.423      1.9227E-02
   8    10.00      10.000       9.999       9.997       9.987       9.938       9.731       8.949       6.423      1.9227E-02
   9    10.00      10.000       9.999       9.997       9.987       9.938       9.731       8.949       6.423      1.9227E-02
  10    10.00      10.000       9.999       9.997       9.987       9.938       9.731       8.949       6.423      1.9227E-02

 HEAD WILL BE SAVED ON UNIT   51 AT END OF TIME STEP   11, STRESS PERIOD    2

 DRAWDOWN WILL BE SAVED ON UNIT   52 AT END OF TIME STEP   11, STRESS PERIOD    2
1
  VOLUMETRIC BUDGET FOR ENTIRE MODEL AT END OF TIME STEP   11, STRESS PERIOD   2
  ------------------------------------------------------------------------------

     CUMULATIVE VOLUMES      L**3       RATES FOR THIS TIME STEP      L**3/T
     ------------------                 ------------------------

           IN:                                      IN:
           ---                                      ---
             STORAGE =      148268.6875               STORAGE =        3422.6091
       CONSTANT HEAD =           0.0000         CONSTANT HEAD =           0.0000
               WELLS =           0.0000                 WELLS =           0.0000
     HEAD DEP BOUNDS =           0.1318       HEAD DEP BOUNDS =       4.2553E-02

            TOTAL IN =      148268.8125              TOTAL IN =        3422.6516

          OUT:                                     OUT:
          ----                                     ----
             STORAGE =           0.0000               STORAGE =           0.0000
       CONSTANT HEAD =           0.0000         CONSTANT HEAD =           0.0000
               WELLS =           0.0000                 WELLS =           0.0000
     HEAD DEP BOUNDS =      148268.8750       HEAD DEP BOUNDS =        3422.6619

           TOTAL OUT =      148268.8750             TOTAL OUT =        3422.6619

            IN - OUT =      -6.2500E-02              IN - OUT =      -1.0254E-02

 PERCENT DISCREPANCY =          -0.00     PERCENT DISCREPANCY =          -0.00






         TIME SUMMARY AT END OF TIME STEP   11 IN STRESS PERIOD    2
                    SECONDS     MINUTES      HOURS       DAYS        YEARS
                    -----------------------------------------------------------
   TIME STEP LENGTH  86400.      1440.0      24.000      1.0000     2.73785E-03
 STRESS PERIOD TIME 9.50400E+05  15840.      264.00      11.000     3.01164E-02
         TOTAL TIME 1.03680E+06  17280.      288.00      12.000     3.28542E-02
1
 
 SOLVING FOR HEAD 

 OUTPUT CONTROL FOR STRESS PERIOD    2   TIME STEP   12
    SAVE HEAD FOR ALL LAYERS
    SAVE DRAWDOWN FOR ALL LAYERS
    SAVE BUDGET
    PRINT HEAD FOR ALL LAYERS
    PRINT BUDGET
 UBDSV1 SAVING "         STORAGE" ON UNIT  53 AT TIME STEP 12, STRESS PERIOD   2
 UBDSV2 SAVING "   CONSTANT HEAD" ON UNIT  53 AT TIME STEP 12, STRESS PERIOD   2
 UBDSV1 SAVING "FLOW RIGHT FACE " ON UNIT  53 AT TIME STEP 12, STRESS PERIOD   2
 UBDSV1 SAVING "FLOW FRONT FACE " ON UNIT  53 AT TIME STEP 12, STRESS PERIOD   2
 UBDSV1 SAVING "FLOW LOWER FACE " ON UNIT  53 AT TIME STEP 12, STRESS PERIOD   2
1
              HEAD IN LAYER   1 AT END OF TIME STEP  12 IN STRESS PERIOD    2
  ---------------------------------------------------------------------------

            1           2           3           4           5           6           7           8           9          10
 ........................................................................................................................
   1    10.00      10.000      10.000       9.998       9.989       9.948       9.770       9.073       6.729      1.0939E-02
   2    10.00      10.000      10.000       9.998       9.989       9.948       9.770       9.073       6.729      1.0939E-02
   3    10.00      10.000      10.000       9.998       9.989       9.948       9.770       9.073       6.729      1.0939E-02
   4    10.00      10.000      10.000       9.998       9.989       9.948       9.770       9.073       6.729      1.0939E-02
   5    10.00      10.000      10.000       9.998       9.989       9.948       9.770       9.073       6.729      1.0939E-02
   6    10.00      10.000      10.000       9.998       9.989       9.948       9.770       9.073       6.729      1.0939E-02
   7    10.00      10.000      10.000       9.998       9.989       9.948       9.770       9.073       6.729      1.0939E-02
   8    10.00      10.000      10.000       9.998       9.989       9.948       9.770       9.073       6.729      1.0939E-02
   9    10.00      10.000      10.000       9.998       9.989       9.948       9.770       9.073       6.729      1.0939E-02
  10    10.00      10.000      10.000       9.998       9.989       9.948       9.770       9.073       6.729      1.0939E-02
1
              HEAD IN LAYER   2 AT END OF TIME STEP  12 IN STRESS PERIOD    2
  ---------------------------------------------------------------------------

            1           2           3           4           5           6           7           8           9          10
 ........................................................................................................................
   1    10.00      10.000       9.999       9.997       9.987       9.938       9.733       8.966       6.508      1.8133E-02
   2    10.00      10.000       9.999       9.997       9.987       9.938       9.733       8.966       6.508      1.8133E-02
   3    10.00      10.000       9.999       9.997       9.987       9.938       9.733       8.966       6.508      1.8133E-02
   4    10.00      10.000       9.999       9.997       9.987       9.938       9.733       8.966       6.508      1.8133E-02
   5    10.00      10.000       9.999       9.997       9.987       9.938       9.733       8.966       6.508      1.8133E-02
   6    10.00      10.000       9.999       9.997       9.987       9.938       9.733       8.966       6.508      1.8133E-02
   7    10.00      10.000       9.999       9.997       9.987       9.938       9.733       8.966       6.508      1.8133E-02
   8    10.00      10.000       9.999       9.997       9.987       9.938       9.733       8.966       6.508      1.8133E-02
   9    10.00      10.000       9.999       9.997       9.987       9.938       9.733       8.966       6.508      1.8133E-02
  10    10.00      10.000       9.999       9.997       9.987       9.938       9.733       8.966       6.508      1.8133E-02
1
              HEAD IN LAYER   3 AT END OF TIME STEP  12 IN STRESS PERIOD    2
  ---------------------------------------------------------------------------

            1           2           3           4           5           6           7           8           9          10
 ........................................................................................................................
   1    10.00      10.000       9.999       9.997       9.985       9.931       9.708       8.892       6.348      1.8875E-02
   2    10.00      10.000       9.999       9.997       9.985       9.931       9.708       8.892       6.348      1.8875E-02
   3    10.00      10.000       9.999       9.997       9.985       9.931       9.708       8.892       6.348      1.8875E-02
   4    10.00      10.000       9.999       9.997       9.985       9.931       9.708       8.892       6.348      1.8875E-02
   5    10.00      10.000       9.999       9.997       9.985       9.931       9.708       8.892       6.348      1.8875E-02
   6    10.00      10.000       9.999       9.997       9.985       9.931       9.708       8.892       6.348      1.8875E-02
   7    10.00      10.000       9.999       9.997       9.985       9.931       9.708       8.892       6.348      1.8875E-02
   8    10.00      10.000       9.999       9.997       9.985       9.931       9.708       8.892       6.348      1.8875E-02
   9    10.00      10.000       9.999       9.997       9.985       9.931       9.708       8.892       6.348      1.8875E-02
  10    10.00      10.000       9.999       9.997       9.985       9.931       9.708       8.892       6.348      1.8875E-02
1
              HEAD IN LAYER   4 AT END OF TIME STEP  12 IN STRESS PERIOD    2
  ---------------------------------------------------------------------------

            1           2           3           4           5           6           7           8           9          10
 ........................................................................................................................
   1    10.00      10.000       9.999       9.997       9.984       9.927       9.695       8.855       6.269      1.8766E-02
   2    10.00      10.000       9.999       9.997       9.984       9.927       9.695       8.855       6.269      1.8766E-02
   3    10.00      10.000       9.999       9.997       9.984       9.927       9.695       8.855       6.269      1.8766E-02
   4    10.00      10.000       9.999       9.997       9.984       9.927       9.695       8.855       6.269      1.8766E-02
   5    10.00      10.000       9.999       9.997       9.984       9.927       9.695       8.855       6.269      1.8766E-02
   6    10.00      10.000       9.999       9.997       9.984       9.927       9.695       8.855       6.269      1.8766E-02
   7    10.00      10.000       9.999       9.997       9.984       9.927       9.695       8.855       6.269      1.8766E-02
   8    10.00      10.000       9.999       9.997       9.984       9.927       9.695       8.855       6.269      1.8766E-02
   9    10.00      10.000       9.999       9.997       9.984       9.927       9.695       8.855       6.269      1.8766E-02
  10    10.00      10.000       9.999       9.997       9.984       9.927       9.695       8.855       6.269      1.8766E-02

 HEAD WILL BE SAVED ON UNIT   51 AT END OF TIME STEP   12, STRESS PERIOD    2

 DRAWDOWN WILL BE SAVED ON UNIT   52 AT END OF TIME STEP   12, STRESS PERIOD    2
1
  VOLUMETRIC BUDGET FOR ENTIRE MODEL AT END OF TIME STEP   12, STRESS PERIOD   2
  ------------------------------------------------------------------------------

     CUMULATIVE VOLUMES      L**3       RATES FOR THIS TIME STEP      L**3/T
     ------------------                 ------------------------

           IN:                                      IN:
           ---                                      ---
             STORAGE =      151604.2969               STORAGE =        3335.6021
       CONSTANT HEAD =           0.0000         CONSTANT HEAD =           0.0000
               WELLS =           0.0000                 WELLS =           0.0000
     HEAD DEP BOUNDS =           0.1898       HEAD DEP BOUNDS =       5.7971E-02

            TOTAL IN =      151604.4844              TOTAL IN =        3335.6599

          OUT:                                     OUT:
          ----                                     ----
             STORAGE =           0.0000               STORAGE =           0.0000
       CONSTANT HEAD =           0.0000         CONSTANT HEAD =           0.0000
               WELLS =           0.0000                 WELLS =           0.0000
     HEAD DEP BOUNDS =      151604.5469       HEAD DEP BOUNDS =        3335.6685

           TOTAL OUT =      151604.5469             TOTAL OUT =        3335.6685

            IN - OUT =      -6.2500E-02              IN - OUT =      -8.5449E-03

 PERCENT DISCREPANCY =          -0.00     PERCENT DISCREPANCY =          -0.00






         TIME SUMMARY AT END OF TIME STEP   12 IN STRESS PERIOD    2
                    SECONDS     MINUTES      HOURS       DAYS        YEARS
                    -----------------------------------------------------------
   TIME STEP LENGTH  86400.      1440.0      24.000      1.0000     2.73785E-03
 STRESS PERIOD TIME 1.03680E+06  17280.      288.00      12.000     3.28542E-02
         TOTAL TIME 1.12320E+06  18720.      312.00      13.000     3.55921E-02
1
 
 SOLVING FOR HEAD 

 OUTPUT CONTROL FOR STRESS PERIOD    2   TIME STEP   13
    SAVE HEAD FOR ALL LAYERS
    SAVE DRAWDOWN FOR ALL LAYERS
    SAVE BUDGET
    PRINT HEAD FOR ALL LAYERS
    PRINT BUDGET
 UBDSV1 SAVING "         STORAGE" ON UNIT  53 AT TIME STEP 13, STRESS PERIOD   2
 UBDSV2 SAVING "   CONSTANT HEAD" ON UNIT  53 AT TIME STEP 13, STRESS PERIOD   2
 UBDSV1 SAVING "FLOW RIGHT FACE " ON UNIT  53 AT TIME STEP 13, STRESS PERIOD   2
 UBDSV1 SAVING "FLOW FRONT FACE " ON UNIT  53 AT TIME STEP 13, STRESS PERIOD   2
 UBDSV1 SAVING "FLOW LOWER FACE " ON UNIT  53 AT TIME STEP 13, STRESS PERIOD   2
1
              HEAD IN LAYER   1 AT END OF TIME STEP  13 IN STRESS PERIOD    2
  ---------------------------------------------------------------------------

            1           2           3           4           5           6           7           8           9          10
 ........................................................................................................................
   1    10.00      10.000       9.999       9.997       9.987       9.938       9.736       8.980       6.558      1.0627E-02
   2    10.00      10.000       9.999       9.997       9.987       9.938       9.736       8.980       6.558      1.0627E-02
   3    10.00      10.000       9.999       9.997       9.987       9.938       9.736       8.980       6.558      1.0627E-02
   4    10.00      10.000       9.999       9.997       9.987       9.938       9.736       8.980       6.558      1.0627E-02
   5    10.00      10.000       9.999       9.997       9.987       9.938       9.736       8.980       6.558      1.0627E-02
   6    10.00      10.000       9.999       9.997       9.987       9.938       9.736       8.980       6.558      1.0627E-02
   7    10.00      10.000       9.999       9.997       9.987       9.938       9.736       8.980       6.558      1.0627E-02
   8    10.00      10.000       9.999       9.997       9.987       9.938       9.736       8.980       6.558      1.0627E-02
   9    10.00      10.000       9.999       9.997       9.987       9.938       9.736       8.980       6.558      1.0627E-02
  10    10.00      10.000       9.999       9.997       9.987       9.938       9.736       8.980       6.558      1.0627E-02
1
              HEAD IN LAYER   2 AT END OF TIME STEP  13 IN STRESS PERIOD    2
  ---------------------------------------------------------------------------

            1           2           3           4           5           6           7           8           9          10
 ........................................................................................................................
   1    10.00      10.000       9.999       9.997       9.984       9.927       9.697       8.873       6.351      1.7687E-02
   2    10.00      10.000       9.999       9.997       9.984       9.927       9.697       8.873       6.351      1.7687E-02
   3    10.00      10.000       9.999       9.997       9.984       9.927       9.697       8.873       6.351      1.7687E-02
   4    10.00      10.000       9.999       9.997       9.984       9.927       9.697       8.873       6.351      1.7687E-02
   5    10.00      10.000       9.999       9.997       9.984       9.927       9.697       8.873       6.351      1.7687E-02
   6    10.00      10.000       9.999       9.997       9.984       9.927       9.697       8.873       6.351      1.7687E-02
   7    10.00      10.000       9.999       9.997       9.984       9.927       9.697       8.873       6.351      1.7687E-02
   8    10.00      10.000       9.999       9.997       9.984       9.927       9.697       8.873       6.351      1.7687E-02
   9    10.00      10.000       9.999       9.997       9.984       9.927       9.697       8.873       6.351      1.7687E-02
  10    10.00      10.000       9.999       9.997       9.984       9.927       9.697       8.873       6.351      1.7687E-02
1
              HEAD IN LAYER   3 AT END OF TIME STEP  13 IN STRESS PERIOD    2
  ---------------------------------------------------------------------------

            1           2           3           4           5           6           7           8           9          10
 ........................................................................................................................
   1    10.00      10.000       9.999       9.996       9.982       9.919       9.671       8.799       6.199      1.8430E-02
   2    10.00      10.000       9.999       9.996       9.982       9.919       9.671       8.799       6.199      1.8430E-02
   3    10.00      10.000       9.999       9.996       9.982       9.919       9.671       8.799       6.199      1.8430E-02
   4    10.00      10.000       9.999       9.996       9.982       9.919       9.671       8.799       6.199      1.8430E-02
   5    10.00      10.000       9.999       9.996       9.982       9.919       9.671       8.799       6.199      1.8430E-02
   6    10.00      10.000       9.999       9.996       9.982       9.919       9.671       8.799       6.199      1.8430E-02
   7    10.00      10.000       9.999       9.996       9.982       9.919       9.671       8.799       6.199      1.8430E-02
   8    10.00      10.000       9.999       9.996       9.982       9.919       9.671       8.799       6.199      1.8430E-02
   9    10.00      10.000       9.999       9.996       9.982       9.919       9.671       8.799       6.199      1.8430E-02
  10    10.00      10.000       9.999       9.996       9.982       9.919       9.671       8.799       6.199      1.8430E-02
1
              HEAD IN LAYER   4 AT END OF TIME STEP  13 IN STRESS PERIOD    2
  ---------------------------------------------------------------------------

            1           2           3           4           5           6           7           8           9          10
 ........................................................................................................................
   1    10.00      10.000       9.999       9.996       9.981       9.915       9.657       8.762       6.124      1.8331E-02
   2    10.00      10.000       9.999       9.996       9.981       9.915       9.657       8.762       6.124      1.8331E-02
   3    10.00      10.000       9.999       9.996       9.981       9.915       9.657       8.762       6.124      1.8331E-02
   4    10.00      10.000       9.999       9.996       9.981       9.915       9.657       8.762       6.124      1.8331E-02
   5    10.00      10.000       9.999       9.996       9.981       9.915       9.657       8.762       6.124      1.8331E-02
   6    10.00      10.000       9.999       9.996       9.981       9.915       9.657       8.762       6.124      1.8331E-02
   7    10.00      10.000       9.999       9.996       9.981       9.915       9.657       8.762       6.124      1.8331E-02
   8    10.00      10.000       9.999       9.996       9.981       9.915       9.657       8.762       6.124      1.8331E-02
   9    10.00      10.000       9.999       9.996       9.981       9.915       9.657       8.762       6.124      1.8331E-02
  10    10.00      10.000       9.999       9.996       9.981       9.915       9.657       8.762       6.124      1.8331E-02

 HEAD WILL BE SAVED ON UNIT   51 AT END OF TIME STEP   13, STRESS PERIOD    2

 DRAWDOWN WILL BE SAVED ON UNIT   52 AT END OF TIME STEP   13, STRESS PERIOD    2
1
  VOLUMETRIC BUDGET FOR ENTIRE MODEL AT END OF TIME STEP   13, STRESS PERIOD   2
  ------------------------------------------------------------------------------

     CUMULATIVE VOLUMES      L**3       RATES FOR THIS TIME STEP      L**3/T
     ------------------                 ------------------------

           IN:                                      IN:
           ---                                      ---
             STORAGE =      154857.9844               STORAGE =        3253.6909
       CONSTANT HEAD =           0.0000         CONSTANT HEAD =           0.0000
               WELLS =           0.0000                 WELLS =           0.0000
     HEAD DEP BOUNDS =           0.2668       HEAD DEP BOUNDS =       7.6999E-02

            TOTAL IN =      154858.2500              TOTAL IN =        3253.7678

          OUT:                                     OUT:
          ----                                     ----
             STORAGE =           0.0000               STORAGE =           0.0000
       CONSTANT HEAD =           0.0000         CONSTANT HEAD =           0.0000
               WELLS =           0.0000                 WELLS =           0.0000
     HEAD DEP BOUNDS =      154858.3281       HEAD DEP BOUNDS =        3253.7747

           TOTAL OUT =      154858.3281             TOTAL OUT =        3253.7747

            IN - OUT =      -7.8125E-02              IN - OUT =      -6.8359E-03

 PERCENT DISCREPANCY =          -0.00     PERCENT DISCREPANCY =          -0.00






         TIME SUMMARY AT END OF TIME STEP   13 IN STRESS PERIOD    2
                    SECONDS     MINUTES      HOURS       DAYS        YEARS
                    -----------------------------------------------------------
   TIME STEP LENGTH  86400.      1440.0      24.000      1.0000     2.73785E-03
 STRESS PERIOD TIME 1.12320E+06  18720.      312.00      13.000     3.55921E-02
         TOTAL TIME 1.20960E+06  20160.      336.00      14.000     3.83299E-02
1
 
 SOLVING FOR HEAD 

 OUTPUT CONTROL FOR STRESS PERIOD    2   TIME STEP   14
    SAVE HEAD FOR ALL LAYERS
    SAVE DRAWDOWN FOR ALL LAYERS
    SAVE BUDGET
    PRINT HEAD FOR ALL LAYERS
    PRINT BUDGET
 UBDSV1 SAVING "         STORAGE" ON UNIT  53 AT TIME STEP 14, STRESS PERIOD   2
 UBDSV2 SAVING "   CONSTANT HEAD" ON UNIT  53 AT TIME STEP 14, STRESS PERIOD   2
 UBDSV1 SAVING "FLOW RIGHT FACE " ON UNIT  53 AT TIME STEP 14, STRESS PERIOD   2
 UBDSV1 SAVING "FLOW FRONT FACE " ON UNIT  53 AT TIME STEP 14, STRESS PERIOD   2
 UBDSV1 SAVING "FLOW LOWER FACE " ON UNIT  53 AT TIME STEP 14, STRESS PERIOD   2
1
              HEAD IN LAYER   1 AT END OF TIME STEP  14 IN STRESS PERIOD    2
  ---------------------------------------------------------------------------

            1           2           3           4           5           6           7           8           9          10
 ........................................................................................................................
   1    10.00      10.000       9.999       9.997       9.984       9.927       9.701       8.887       6.397      1.0335E-02
   2    10.00      10.000       9.999       9.997       9.984       9.927       9.701       8.887       6.397      1.0335E-02
   3    10.00      10.000       9.999       9.997       9.984       9.927       9.701       8.887       6.397      1.0335E-02
   4    10.00      10.000       9.999       9.997       9.984       9.927       9.701       8.887       6.397      1.0335E-02
   5    10.00      10.000       9.999       9.997       9.984       9.927       9.701       8.887       6.397      1.0335E-02
   6    10.00      10.000       9.999       9.997       9.984       9.927       9.701       8.887       6.397      1.0335E-02
   7    10.00      10.000       9.999       9.997       9.984       9.927       9.701       8.887       6.397      1.0335E-02
   8    10.00      10.000       9.999       9.997       9.984       9.927       9.701       8.887       6.397      1.0335E-02
   9    10.00      10.000       9.999       9.997       9.984       9.927       9.701       8.887       6.397      1.0335E-02
  10    10.00      10.000       9.999       9.997       9.984       9.927       9.701       8.887       6.397      1.0335E-02
1
              HEAD IN LAYER   2 AT END OF TIME STEP  14 IN STRESS PERIOD    2
  ---------------------------------------------------------------------------

            1           2           3           4           5           6           7           8           9          10
 ........................................................................................................................
   1    10.00      10.000       9.999       9.996       9.980       9.915       9.660       8.781       6.202      1.7267E-02
   2    10.00      10.000       9.999       9.996       9.980       9.915       9.660       8.781       6.202      1.7267E-02
   3    10.00      10.000       9.999       9.996       9.980       9.915       9.660       8.781       6.202      1.7267E-02
   4    10.00      10.000       9.999       9.996       9.980       9.915       9.660       8.781       6.202      1.7267E-02
   5    10.00      10.000       9.999       9.996       9.980       9.915       9.660       8.781       6.202      1.7267E-02
   6    10.00      10.000       9.999       9.996       9.980       9.915       9.660       8.781       6.202      1.7267E-02
   7    10.00      10.000       9.999       9.996       9.980       9.915       9.660       8.781       6.202      1.7267E-02
   8    10.00      10.000       9.999       9.996       9.980       9.915       9.660       8.781       6.202      1.7267E-02
   9    10.00      10.000       9.999       9.996       9.980       9.915       9.660       8.781       6.202      1.7267E-02
  10    10.00      10.000       9.999       9.996       9.980       9.915       9.660       8.781       6.202      1.7267E-02
1
              HEAD IN LAYER   3 AT END OF TIME STEP  14 IN STRESS PERIOD    2
  ---------------------------------------------------------------------------

            1           2           3           4           5           6           7           8           9          10
 ........................................................................................................................
   1    10.00      10.000       9.999       9.995       9.978       9.906       9.632       8.707       6.058      1.8009E-02
   2    10.00      10.000       9.999       9.995       9.978       9.906       9.632       8.707       6.058      1.8009E-02
   3    10.00      10.000       9.999       9.995       9.978       9.906       9.632       8.707       6.058      1.8009E-02
   4    10.00      10.000       9.999       9.995       9.978       9.906       9.632       8.707       6.058      1.8009E-02
   5    10.00      10.000       9.999       9.995       9.978       9.906       9.632       8.707       6.058      1.8009E-02
   6    10.00      10.000       9.999       9.995       9.978       9.906       9.632       8.707       6.058      1.8009E-02
   7    10.00      10.000       9.999       9.995       9.978       9.906       9.632       8.707       6.058      1.8009E-02
   8    10.00      10.000       9.999       9.995       9.978       9.906       9.632       8.707       6.058      1.8009E-02
   9    10.00      10.000       9.999       9.995       9.978       9.906       9.632       8.707       6.058      1.8009E-02
  10    10.00      10.000       9.999       9.995       9.978       9.906       9.632       8.707       6.058      1.8009E-02
1
              HEAD IN LAYER   4 AT END OF TIME STEP  14 IN STRESS PERIOD    2
  ---------------------------------------------------------------------------

            1           2           3           4           5           6           7           8           9          10
 ........................................................................................................................
   1    10.00      10.000       9.999       9.995       9.977       9.902       9.618       8.670       5.987      1.7920E-02
   2    10.00      10.000       9.999       9.995       9.977       9.902       9.618       8.670       5.987      1.7920E-02
   3    10.00      10.000       9.999       9.995       9.977       9.902       9.618       8.670       5.987      1.7920E-02
   4    10.00      10.000       9.999       9.995       9.977       9.902       9.618       8.670       5.987      1.7920E-02
   5    10.00      10.000       9.999       9.995       9.977       9.902       9.618       8.670       5.987      1.7920E-02
   6    10.00      10.000       9.999       9.995       9.977       9.902       9.618       8.670       5.987      1.7920E-02
   7    10.00      10.000       9.999       9.995       9.977       9.902       9.618       8.670       5.987      1.7920E-02
   8    10.00      10.000       9.999       9.995       9.977       9.902       9.618       8.670       5.987      1.7920E-02
   9    10.00      10.000       9.999       9.995       9.977       9.902       9.618       8.670       5.987      1.7920E-02
  10    10.00      10.000       9.999       9.995       9.977       9.902       9.618       8.670       5.987      1.7920E-02

 HEAD WILL BE SAVED ON UNIT   51 AT END OF TIME STEP   14, STRESS PERIOD    2

 DRAWDOWN WILL BE SAVED ON UNIT   52 AT END OF TIME STEP   14, STRESS PERIOD    2
1
  VOLUMETRIC BUDGET FOR ENTIRE MODEL AT END OF TIME STEP   14, STRESS PERIOD   2
  ------------------------------------------------------------------------------

     CUMULATIVE VOLUMES      L**3       RATES FOR THIS TIME STEP      L**3/T
     ------------------                 ------------------------

           IN:                                      IN:
           ---                                      ---
             STORAGE =      158034.4531               STORAGE =        3176.4690
       CONSTANT HEAD =           0.0000         CONSTANT HEAD =           0.0000
               WELLS =           0.0000                 WELLS =           0.0000
     HEAD DEP BOUNDS =           0.3675       HEAD DEP BOUNDS =           0.1007

            TOTAL IN =      158034.8281              TOTAL IN =        3176.5698

          OUT:                                     OUT:
          ----                                     ----
             STORAGE =           0.0000               STORAGE =           0.0000
       CONSTANT HEAD =           0.0000         CONSTANT HEAD =           0.0000
               WELLS =           0.0000                 WELLS =           0.0000
     HEAD DEP BOUNDS =      158034.9062       HEAD DEP BOUNDS =        3176.5723

           TOTAL OUT =      158034.9062             TOTAL OUT =        3176.5723

            IN - OUT =      -7.8125E-02              IN - OUT =      -2.4414E-03

 PERCENT DISCREPANCY =          -0.00     PERCENT DISCREPANCY =          -0.00






         TIME SUMMARY AT END OF TIME STEP   14 IN STRESS PERIOD    2
                    SECONDS     MINUTES      HOURS       DAYS        YEARS
                    -----------------------------------------------------------
   TIME STEP LENGTH  86400.      1440.0      24.000      1.0000     2.73785E-03
 STRESS PERIOD TIME 1.20960E+06  20160.      336.00      14.000     3.83299E-02
         TOTAL TIME 1.29600E+06  21600.      360.00      15.000     4.10678E-02
1
 
 SOLVING FOR HEAD 

 OUTPUT CONTROL FOR STRESS PERIOD    2   TIME STEP   15
    SAVE HEAD FOR ALL LAYERS
    SAVE DRAWDOWN FOR ALL LAYERS
    SAVE BUDGET
    PRINT HEAD FOR ALL LAYERS
    PRINT BUDGET
 UBDSV1 SAVING "         STORAGE" ON UNIT  53 AT TIME STEP 15, STRESS PERIOD   2
 UBDSV2 SAVING "   CONSTANT HEAD" ON UNIT  53 AT TIME STEP 15, STRESS PERIOD   2
 UBDSV1 SAVING "FLOW RIGHT FACE " ON UNIT  53 AT TIME STEP 15, STRESS PERIOD   2
 UBDSV1 SAVING "FLOW FRONT FACE " ON UNIT  53 AT TIME STEP 15, STRESS PERIOD   2
 UBDSV1 SAVING "FLOW LOWER FACE " ON UNIT  53 AT TIME STEP 15, STRESS PERIOD   2
1
              HEAD IN LAYER   1 AT END OF TIME STEP  15 IN STRESS PERIOD    2
  ---------------------------------------------------------------------------

            1           2           3           4           5           6           7           8           9          10
 ........................................................................................................................
   1    10.00      10.000       9.999       9.996       9.980       9.916       9.664       8.795       6.245      1.0060E-02
   2    10.00      10.000       9.999       9.996       9.980       9.916       9.664       8.795       6.245      1.0060E-02
   3    10.00      10.000       9.999       9.996       9.980       9.916       9.664       8.795       6.245      1.0060E-02
   4    10.00      10.000       9.999       9.996       9.980       9.916       9.664       8.795       6.245      1.0060E-02
   5    10.00      10.000       9.999       9.996       9.980       9.916       9.664       8.795       6.245      1.0060E-02
   6    10.00      10.000       9.999       9.996       9.980       9.916       9.664       8.795       6.245      1.0060E-02
   7    10.00      10.000       9.999       9.996       9.980       9.916       9.664       8.795       6.245      1.0060E-02
   8    10.00      10.000       9.999       9.996       9.980       9.916       9.664       8.795       6.245      1.0060E-02
   9    10.00      10.000       9.999       9.996       9.980       9.916       9.664       8.795       6.245      1.0060E-02
  10    10.00      10.000       9.999       9.996       9.980       9.916       9.664       8.795       6.245      1.0060E-02
1
              HEAD IN LAYER   2 AT END OF TIME STEP  15 IN STRESS PERIOD    2
  ---------------------------------------------------------------------------

            1           2           3           4           5           6           7           8           9          10
 ........................................................................................................................
   1    10.00      10.000       9.999       9.995       9.977       9.902       9.621       8.690       6.061      1.6871E-02
   2    10.00      10.000       9.999       9.995       9.977       9.902       9.621       8.690       6.061      1.6871E-02
   3    10.00      10.000       9.999       9.995       9.977       9.902       9.621       8.690       6.061      1.6871E-02
   4    10.00      10.000       9.999       9.995       9.977       9.902       9.621       8.690       6.061      1.6871E-02
   5    10.00      10.000       9.999       9.995       9.977       9.902       9.621       8.690       6.061      1.6871E-02
   6    10.00      10.000       9.999       9.995       9.977       9.902       9.621       8.690       6.061      1.6871E-02
   7    10.00      10.000       9.999       9.995       9.977       9.902       9.621       8.690       6.061      1.6871E-02
   8    10.00      10.000       9.999       9.995       9.977       9.902       9.621       8.690       6.061      1.6871E-02
   9    10.00      10.000       9.999       9.995       9.977       9.902       9.621       8.690       6.061      1.6871E-02
  10    10.00      10.000       9.999       9.995       9.977       9.902       9.621       8.690       6.061      1.6871E-02
1
              HEAD IN LAYER   3 AT END OF TIME STEP  15 IN STRESS PERIOD    2
  ---------------------------------------------------------------------------

            1           2           3           4           5           6           7           8           9          10
 ........................................................................................................................
   1    10.00      10.000       9.999       9.994       9.974       9.893       9.592       8.616       5.924      1.7612E-02
   2    10.00      10.000       9.999       9.994       9.974       9.893       9.592       8.616       5.924      1.7612E-02
   3    10.00      10.000       9.999       9.994       9.974       9.893       9.592       8.616       5.924      1.7612E-02
   4    10.00      10.000       9.999       9.994       9.974       9.893       9.592       8.616       5.924      1.7612E-02
   5    10.00      10.000       9.999       9.994       9.974       9.893       9.592       8.616       5.924      1.7612E-02
   6    10.00      10.000       9.999       9.994       9.974       9.893       9.592       8.616       5.924      1.7612E-02
   7    10.00      10.000       9.999       9.994       9.974       9.893       9.592       8.616       5.924      1.7612E-02
   8    10.00      10.000       9.999       9.994       9.974       9.893       9.592       8.616       5.924      1.7612E-02
   9    10.00      10.000       9.999       9.994       9.974       9.893       9.592       8.616       5.924      1.7612E-02
  10    10.00      10.000       9.999       9.994       9.974       9.893       9.592       8.616       5.924      1.7612E-02
1
              HEAD IN LAYER   4 AT END OF TIME STEP  15 IN STRESS PERIOD    2
  ---------------------------------------------------------------------------

            1           2           3           4           5           6           7           8           9          10
 ........................................................................................................................
   1    10.00      10.000       9.999       9.994       9.973       9.888       9.578       8.580       5.857      1.7531E-02
   2    10.00      10.000       9.999       9.994       9.973       9.888       9.578       8.580       5.857      1.7531E-02
   3    10.00      10.000       9.999       9.994       9.973       9.888       9.578       8.580       5.857      1.7531E-02
   4    10.00      10.000       9.999       9.994       9.973       9.888       9.578       8.580       5.857      1.7531E-02
   5    10.00      10.000       9.999       9.994       9.973       9.888       9.578       8.580       5.857      1.7531E-02
   6    10.00      10.000       9.999       9.994       9.973       9.888       9.578       8.580       5.857      1.7531E-02
   7    10.00      10.000       9.999       9.994       9.973       9.888       9.578       8.580       5.857      1.7531E-02
   8    10.00      10.000       9.999       9.994       9.973       9.888       9.578       8.580       5.857      1.7531E-02
   9    10.00      10.000       9.999       9.994       9.973       9.888       9.578       8.580       5.857      1.7531E-02
  10    10.00      10.000       9.999       9.994       9.973       9.888       9.578       8.580       5.857      1.7531E-02

 HEAD WILL BE SAVED ON UNIT   51 AT END OF TIME STEP   15, STRESS PERIOD    2

 DRAWDOWN WILL BE SAVED ON UNIT   52 AT END OF TIME STEP   15, STRESS PERIOD    2
1
  VOLUMETRIC BUDGET FOR ENTIRE MODEL AT END OF TIME STEP   15, STRESS PERIOD   2
  ------------------------------------------------------------------------------

     CUMULATIVE VOLUMES      L**3       RATES FOR THIS TIME STEP      L**3/T
     ------------------                 ------------------------

           IN:                                      IN:
           ---                                      ---
             STORAGE =      161138.0000               STORAGE =        3103.5396
       CONSTANT HEAD =           0.0000         CONSTANT HEAD =           0.0000
               WELLS =           0.0000                 WELLS =           0.0000
     HEAD DEP BOUNDS =           0.4972       HEAD DEP BOUNDS =           0.1297

            TOTAL IN =      161138.5000              TOTAL IN =        3103.6692

          OUT:                                     OUT:
          ----                                     ----
             STORAGE =           0.0000               STORAGE =           0.0000
       CONSTANT HEAD =           0.0000         CONSTANT HEAD =           0.0000
               WELLS =           0.0000                 WELLS =           0.0000
     HEAD DEP BOUNDS =      161138.5938       HEAD DEP BOUNDS =        3103.6863

           TOTAL OUT =      161138.5938             TOTAL OUT =        3103.6863

            IN - OUT =      -9.3750E-02              IN - OUT =      -1.7090E-02

 PERCENT DISCREPANCY =          -0.00     PERCENT DISCREPANCY =          -0.00






         TIME SUMMARY AT END OF TIME STEP   15 IN STRESS PERIOD    2
                    SECONDS     MINUTES      HOURS       DAYS        YEARS
                    -----------------------------------------------------------
   TIME STEP LENGTH  86400.      1440.0      24.000      1.0000     2.73785E-03
 STRESS PERIOD TIME 1.29600E+06  21600.      360.00      15.000     4.10678E-02
         TOTAL TIME 1.38240E+06  23040.      384.00      16.000     4.38056E-02
1
 
 SOLVING FOR HEAD 

 OUTPUT CONTROL FOR STRESS PERIOD    2   TIME STEP   16
    SAVE HEAD FOR ALL LAYERS
    SAVE DRAWDOWN FOR ALL LAYERS
    SAVE BUDGET
    PRINT HEAD FOR ALL LAYERS
    PRINT BUDGET
 UBDSV1 SAVING "         STORAGE" ON UNIT  53 AT TIME STEP 16, STRESS PERIOD   2
 UBDSV2 SAVING "   CONSTANT HEAD" ON UNIT  53 AT TIME STEP 16, STRESS PERIOD   2
 UBDSV1 SAVING "FLOW RIGHT FACE " ON UNIT  53 AT TIME STEP 16, STRESS PERIOD   2
 UBDSV1 SAVING "FLOW FRONT FACE " ON UNIT  53 AT TIME STEP 16, STRESS PERIOD   2
 UBDSV1 SAVING "FLOW LOWER FACE " ON UNIT  53 AT TIME STEP 16, STRESS PERIOD   2
1
              HEAD IN LAYER   1 AT END OF TIME STEP  16 IN STRESS PERIOD    2
  ---------------------------------------------------------------------------

            1           2           3           4           5           6           7           8           9          10
 ........................................................................................................................
   1    10.00      10.000       9.999       9.995       9.977       9.903       9.625       8.703       6.102      9.8017E-03
   2    10.00      10.000       9.999       9.995       9.977       9.903       9.625       8.703       6.102      9.8017E-03
   3    10.00      10.000       9.999       9.995       9.977       9.903       9.625       8.703       6.102      9.8017E-03
   4    10.00      10.000       9.999       9.995       9.977       9.903       9.625       8.703       6.102      9.8017E-03
   5    10.00      10.000       9.999       9.995       9.977       9.903       9.625       8.703       6.102      9.8017E-03
   6    10.00      10.000       9.999       9.995       9.977       9.903       9.625       8.703       6.102      9.8017E-03
   7    10.00      10.000       9.999       9.995       9.977       9.903       9.625       8.703       6.102      9.8017E-03
   8    10.00      10.000       9.999       9.995       9.977       9.903       9.625       8.703       6.102      9.8017E-03
   9    10.00      10.000       9.999       9.995       9.977       9.903       9.625       8.703       6.102      9.8017E-03
  10    10.00      10.000       9.999       9.995       9.977       9.903       9.625       8.703       6.102      9.8017E-03
1
              HEAD IN LAYER   2 AT END OF TIME STEP  16 IN STRESS PERIOD    2
  ---------------------------------------------------------------------------

            1           2           3           4           5           6           7           8           9          10
 ........................................................................................................................
   1    10.00      10.000       9.999       9.994       9.973       9.888       9.582       8.599       5.928      1.6496E-02
   2    10.00      10.000       9.999       9.994       9.973       9.888       9.582       8.599       5.928      1.6496E-02
   3    10.00      10.000       9.999       9.994       9.973       9.888       9.582       8.599       5.928      1.6496E-02
   4    10.00      10.000       9.999       9.994       9.973       9.888       9.582       8.599       5.928      1.6496E-02
   5    10.00      10.000       9.999       9.994       9.973       9.888       9.582       8.599       5.928      1.6496E-02
   6    10.00      10.000       9.999       9.994       9.973       9.888       9.582       8.599       5.928      1.6496E-02
   7    10.00      10.000       9.999       9.994       9.973       9.888       9.582       8.599       5.928      1.6496E-02
   8    10.00      10.000       9.999       9.994       9.973       9.888       9.582       8.599       5.928      1.6496E-02
   9    10.00      10.000       9.999       9.994       9.973       9.888       9.582       8.599       5.928      1.6496E-02
  10    10.00      10.000       9.999       9.994       9.973       9.888       9.582       8.599       5.928      1.6496E-02
1
              HEAD IN LAYER   3 AT END OF TIME STEP  16 IN STRESS PERIOD    2
  ---------------------------------------------------------------------------

            1           2           3           4           5           6           7           8           9          10
 ........................................................................................................................
   1    10.00      10.000       9.998       9.993       9.970       9.878       9.552       8.527       5.798      1.7236E-02
   2    10.00      10.000       9.998       9.993       9.970       9.878       9.552       8.527       5.798      1.7236E-02
   3    10.00      10.000       9.998       9.993       9.970       9.878       9.552       8.527       5.798      1.7236E-02
   4    10.00      10.000       9.998       9.993       9.970       9.878       9.552       8.527       5.798      1.7236E-02
   5    10.00      10.000       9.998       9.993       9.970       9.878       9.552       8.527       5.798      1.7236E-02
   6    10.00      10.000       9.998       9.993       9.970       9.878       9.552       8.527       5.798      1.7236E-02
   7    10.00      10.000       9.998       9.993       9.970       9.878       9.552       8.527       5.798      1.7236E-02
   8    10.00      10.000       9.998       9.993       9.970       9.878       9.552       8.527       5.798      1.7236E-02
   9    10.00      10.000       9.998       9.993       9.970       9.878       9.552       8.527       5.798      1.7236E-02
  10    10.00      10.000       9.998       9.993       9.970       9.878       9.552       8.527       5.798      1.7236E-02
1
              HEAD IN LAYER   4 AT END OF TIME STEP  16 IN STRESS PERIOD    2
  ---------------------------------------------------------------------------

            1           2           3           4           5           6           7           8           9          10
 ........................................................................................................................
   1    10.00      10.000       9.998       9.993       9.968       9.873       9.537       8.490       5.734      1.7163E-02
   2    10.00      10.000       9.998       9.993       9.968       9.873       9.537       8.490       5.734      1.7163E-02
   3    10.00      10.000       9.998       9.993       9.968       9.873       9.537       8.490       5.734      1.7163E-02
   4    10.00      10.000       9.998       9.993       9.968       9.873       9.537       8.490       5.734      1.7163E-02
   5    10.00      10.000       9.998       9.993       9.968       9.873       9.537       8.490       5.734      1.7163E-02
   6    10.00      10.000       9.998       9.993       9.968       9.873       9.537       8.490       5.734      1.7163E-02
   7    10.00      10.000       9.998       9.993       9.968       9.873       9.537       8.490       5.734      1.7163E-02
   8    10.00      10.000       9.998       9.993       9.968       9.873       9.537       8.490       5.734      1.7163E-02
   9    10.00      10.000       9.998       9.993       9.968       9.873       9.537       8.490       5.734      1.7163E-02
  10    10.00      10.000       9.998       9.993       9.968       9.873       9.537       8.490       5.734      1.7163E-02

 HEAD WILL BE SAVED ON UNIT   51 AT END OF TIME STEP   16, STRESS PERIOD    2

 DRAWDOWN WILL BE SAVED ON UNIT   52 AT END OF TIME STEP   16, STRESS PERIOD    2
1
  VOLUMETRIC BUDGET FOR ENTIRE MODEL AT END OF TIME STEP   16, STRESS PERIOD   2
  ------------------------------------------------------------------------------

     CUMULATIVE VOLUMES      L**3       RATES FOR THIS TIME STEP      L**3/T
     ------------------                 ------------------------

           IN:                                      IN:
           ---                                      ---
             STORAGE =      164172.6250               STORAGE =        3034.6328
       CONSTANT HEAD =           0.0000         CONSTANT HEAD =           0.0000
               WELLS =           0.0000                 WELLS =           0.0000
     HEAD DEP BOUNDS =           0.6617       HEAD DEP BOUNDS =           0.1645

            TOTAL IN =      164173.2812              TOTAL IN =        3034.7974

          OUT:                                     OUT:
          ----                                     ----
             STORAGE =           0.0000               STORAGE =           0.0000
       CONSTANT HEAD =           0.0000         CONSTANT HEAD =           0.0000
               WELLS =           0.0000                 WELLS =           0.0000
     HEAD DEP BOUNDS =      164173.3906       HEAD DEP BOUNDS =        3034.7944

           TOTAL OUT =      164173.3906             TOTAL OUT =        3034.7944

            IN - OUT =          -0.1094              IN - OUT =       2.9297E-03

 PERCENT DISCREPANCY =          -0.00     PERCENT DISCREPANCY =           0.00






         TIME SUMMARY AT END OF TIME STEP   16 IN STRESS PERIOD    2
                    SECONDS     MINUTES      HOURS       DAYS        YEARS
                    -----------------------------------------------------------
   TIME STEP LENGTH  86400.      1440.0      24.000      1.0000     2.73785E-03
 STRESS PERIOD TIME 1.38240E+06  23040.      384.00      16.000     4.38056E-02
         TOTAL TIME 1.46880E+06  24480.      408.00      17.000     4.65435E-02
1
 
 SOLVING FOR HEAD 

 OUTPUT CONTROL FOR STRESS PERIOD    2   TIME STEP   17
    SAVE HEAD FOR ALL LAYERS
    SAVE DRAWDOWN FOR ALL LAYERS
    SAVE BUDGET
    PRINT HEAD FOR ALL LAYERS
    PRINT BUDGET
 UBDSV1 SAVING "         STORAGE" ON UNIT  53 AT TIME STEP 17, STRESS PERIOD   2
 UBDSV2 SAVING "   CONSTANT HEAD" ON UNIT  53 AT TIME STEP 17, STRESS PERIOD   2
 UBDSV1 SAVING "FLOW RIGHT FACE " ON UNIT  53 AT TIME STEP 17, STRESS PERIOD   2
 UBDSV1 SAVING "FLOW FRONT FACE " ON UNIT  53 AT TIME STEP 17, STRESS PERIOD   2
 UBDSV1 SAVING "FLOW LOWER FACE " ON UNIT  53 AT TIME STEP 17, STRESS PERIOD   2
1
              HEAD IN LAYER   1 AT END OF TIME STEP  17 IN STRESS PERIOD    2
  ---------------------------------------------------------------------------

            1           2           3           4           5           6           7           8           9          10
 ........................................................................................................................
   1    10.00      10.000       9.999       9.994       9.973       9.889       9.586       8.613       5.966      9.5581E-03
   2    10.00      10.000       9.999       9.994       9.973       9.889       9.586       8.613       5.966      9.5581E-03
   3    10.00      10.000       9.999       9.994       9.973       9.889       9.586       8.613       5.966      9.5581E-03
   4    10.00      10.000       9.999       9.994       9.973       9.889       9.586       8.613       5.966      9.5581E-03
   5    10.00      10.000       9.999       9.994       9.973       9.889       9.586       8.613       5.966      9.5581E-03
   6    10.00      10.000       9.999       9.994       9.973       9.889       9.586       8.613       5.966      9.5581E-03
   7    10.00      10.000       9.999       9.994       9.973       9.889       9.586       8.613       5.966      9.5581E-03
   8    10.00      10.000       9.999       9.994       9.973       9.889       9.586       8.613       5.966      9.5581E-03
   9    10.00      10.000       9.999       9.994       9.973       9.889       9.586       8.613       5.966      9.5581E-03
  10    10.00      10.000       9.999       9.994       9.973       9.889       9.586       8.613       5.966      9.5581E-03
1
              HEAD IN LAYER   2 AT END OF TIME STEP  17 IN STRESS PERIOD    2
  ---------------------------------------------------------------------------

            1           2           3           4           5           6           7           8           9          10
 ........................................................................................................................
   1    10.00      10.000       9.998       9.992       9.968       9.873       9.541       8.510       5.802      1.6141E-02
   2    10.00      10.000       9.998       9.992       9.968       9.873       9.541       8.510       5.802      1.6141E-02
   3    10.00      10.000       9.998       9.992       9.968       9.873       9.541       8.510       5.802      1.6141E-02
   4    10.00      10.000       9.998       9.992       9.968       9.873       9.541       8.510       5.802      1.6141E-02
   5    10.00      10.000       9.998       9.992       9.968       9.873       9.541       8.510       5.802      1.6141E-02
   6    10.00      10.000       9.998       9.992       9.968       9.873       9.541       8.510       5.802      1.6141E-02
   7    10.00      10.000       9.998       9.992       9.968       9.873       9.541       8.510       5.802      1.6141E-02
   8    10.00      10.000       9.998       9.992       9.968       9.873       9.541       8.510       5.802      1.6141E-02
   9    10.00      10.000       9.998       9.992       9.968       9.873       9.541       8.510       5.802      1.6141E-02
  10    10.00      10.000       9.998       9.992       9.968       9.873       9.541       8.510       5.802      1.6141E-02
1
              HEAD IN LAYER   3 AT END OF TIME STEP  17 IN STRESS PERIOD    2
  ---------------------------------------------------------------------------

            1           2           3           4           5           6           7           8           9          10
 ........................................................................................................................
   1    10.00      10.000       9.998       9.992       9.965       9.863       9.510       8.438       5.679      1.6879E-02
   2    10.00      10.000       9.998       9.992       9.965       9.863       9.510       8.438       5.679      1.6879E-02
   3    10.00      10.000       9.998       9.992       9.965       9.863       9.510       8.438       5.679      1.6879E-02
   4    10.00      10.000       9.998       9.992       9.965       9.863       9.510       8.438       5.679      1.6879E-02
   5    10.00      10.000       9.998       9.992       9.965       9.863       9.510       8.438       5.679      1.6879E-02
   6    10.00      10.000       9.998       9.992       9.965       9.863       9.510       8.438       5.679      1.6879E-02
   7    10.00      10.000       9.998       9.992       9.965       9.863       9.510       8.438       5.679      1.6879E-02
   8    10.00      10.000       9.998       9.992       9.965       9.863       9.510       8.438       5.679      1.6879E-02
   9    10.00      10.000       9.998       9.992       9.965       9.863       9.510       8.438       5.679      1.6879E-02
  10    10.00      10.000       9.998       9.992       9.965       9.863       9.510       8.438       5.679      1.6879E-02
1
              HEAD IN LAYER   4 AT END OF TIME STEP  17 IN STRESS PERIOD    2
  ---------------------------------------------------------------------------

            1           2           3           4           5           6           7           8           9          10
 ........................................................................................................................
   1    10.00      10.000       9.998       9.991       9.963       9.857       9.495       8.402       5.618      1.6813E-02
   2    10.00      10.000       9.998       9.991       9.963       9.857       9.495       8.402       5.618      1.6813E-02
   3    10.00      10.000       9.998       9.991       9.963       9.857       9.495       8.402       5.618      1.6813E-02
   4    10.00      10.000       9.998       9.991       9.963       9.857       9.495       8.402       5.618      1.6813E-02
   5    10.00      10.000       9.998       9.991       9.963       9.857       9.495       8.402       5.618      1.6813E-02
   6    10.00      10.000       9.998       9.991       9.963       9.857       9.495       8.402       5.618      1.6813E-02
   7    10.00      10.000       9.998       9.991       9.963       9.857       9.495       8.402       5.618      1.6813E-02
   8    10.00      10.000       9.998       9.991       9.963       9.857       9.495       8.402       5.618      1.6813E-02
   9    10.00      10.000       9.998       9.991       9.963       9.857       9.495       8.402       5.618      1.6813E-02
  10    10.00      10.000       9.998       9.991       9.963       9.857       9.495       8.402       5.618      1.6813E-02

 HEAD WILL BE SAVED ON UNIT   51 AT END OF TIME STEP   17, STRESS PERIOD    2

 DRAWDOWN WILL BE SAVED ON UNIT   52 AT END OF TIME STEP   17, STRESS PERIOD    2
1
  VOLUMETRIC BUDGET FOR ENTIRE MODEL AT END OF TIME STEP   17, STRESS PERIOD   2
  ------------------------------------------------------------------------------

     CUMULATIVE VOLUMES      L**3       RATES FOR THIS TIME STEP      L**3/T
     ------------------                 ------------------------

           IN:                                      IN:
           ---                                      ---
             STORAGE =      167141.9844               STORAGE =        2969.3643
       CONSTANT HEAD =           0.0000         CONSTANT HEAD =           0.0000
               WELLS =           0.0000                 WELLS =           0.0000
     HEAD DEP BOUNDS =           0.8677       HEAD DEP BOUNDS =           0.2060

            TOTAL IN =      167142.8594              TOTAL IN =        2969.5703

          OUT:                                     OUT:
          ----                                     ----
             STORAGE =           0.0000               STORAGE =           0.0000
       CONSTANT HEAD =           0.0000         CONSTANT HEAD =           0.0000
               WELLS =           0.0000                 WELLS =           0.0000
     HEAD DEP BOUNDS =      167142.9688       HEAD DEP BOUNDS =        2969.5825

           TOTAL OUT =      167142.9688             TOTAL OUT =        2969.5825

            IN - OUT =          -0.1094              IN - OUT =      -1.2207E-02

 PERCENT DISCREPANCY =          -0.00     PERCENT DISCREPANCY =          -0.00






         TIME SUMMARY AT END OF TIME STEP   17 IN STRESS PERIOD    2
                    SECONDS     MINUTES      HOURS       DAYS        YEARS
                    -----------------------------------------------------------
   TIME STEP LENGTH  86400.      1440.0      24.000      1.0000     2.73785E-03
 STRESS PERIOD TIME 1.46880E+06  24480.      408.00      17.000     4.65435E-02
         TOTAL TIME 1.55520E+06  25920.      432.00      18.000     4.92813E-02
1
 
 SOLVING FOR HEAD 

 OUTPUT CONTROL FOR STRESS PERIOD    2   TIME STEP   18
    SAVE HEAD FOR ALL LAYERS
    SAVE DRAWDOWN FOR ALL LAYERS
    SAVE BUDGET
    PRINT HEAD FOR ALL LAYERS
    PRINT BUDGET
 UBDSV1 SAVING "         STORAGE" ON UNIT  53 AT TIME STEP 18, STRESS PERIOD   2
 UBDSV2 SAVING "   CONSTANT HEAD" ON UNIT  53 AT TIME STEP 18, STRESS PERIOD   2
 UBDSV1 SAVING "FLOW RIGHT FACE " ON UNIT  53 AT TIME STEP 18, STRESS PERIOD   2
 UBDSV1 SAVING "FLOW FRONT FACE " ON UNIT  53 AT TIME STEP 18, STRESS PERIOD   2
 UBDSV1 SAVING "FLOW LOWER FACE " ON UNIT  53 AT TIME STEP 18, STRESS PERIOD   2
1
              HEAD IN LAYER   1 AT END OF TIME STEP  18 IN STRESS PERIOD    2
  ---------------------------------------------------------------------------

            1           2           3           4           5           6           7           8           9          10
 ........................................................................................................................
   1    10.00      10.000       9.998       9.992       9.968       9.874       9.545       8.524       5.838      9.3283E-03
   2    10.00      10.000       9.998       9.992       9.968       9.874       9.545       8.524       5.838      9.3283E-03
   3    10.00      10.000       9.998       9.992       9.968       9.874       9.545       8.524       5.838      9.3283E-03
   4    10.00      10.000       9.998       9.992       9.968       9.874       9.545       8.524       5.838      9.3283E-03
   5    10.00      10.000       9.998       9.992       9.968       9.874       9.545       8.524       5.838      9.3283E-03
   6    10.00      10.000       9.998       9.992       9.968       9.874       9.545       8.524       5.838      9.3283E-03
   7    10.00      10.000       9.998       9.992       9.968       9.874       9.545       8.524       5.838      9.3283E-03
   8    10.00      10.000       9.998       9.992       9.968       9.874       9.545       8.524       5.838      9.3283E-03
   9    10.00      10.000       9.998       9.992       9.968       9.874       9.545       8.524       5.838      9.3283E-03
  10    10.00      10.000       9.998       9.992       9.968       9.874       9.545       8.524       5.838      9.3283E-03
1
              HEAD IN LAYER   2 AT END OF TIME STEP  18 IN STRESS PERIOD    2
  ---------------------------------------------------------------------------

            1           2           3           4           5           6           7           8           9          10
 ........................................................................................................................
   1    10.00      10.000       9.998       9.991       9.963       9.858       9.499       8.422       5.683      1.5805E-02
   2    10.00      10.000       9.998       9.991       9.963       9.858       9.499       8.422       5.683      1.5805E-02
   3    10.00      10.000       9.998       9.991       9.963       9.858       9.499       8.422       5.683      1.5805E-02
   4    10.00      10.000       9.998       9.991       9.963       9.858       9.499       8.422       5.683      1.5805E-02
   5    10.00      10.000       9.998       9.991       9.963       9.858       9.499       8.422       5.683      1.5805E-02
   6    10.00      10.000       9.998       9.991       9.963       9.858       9.499       8.422       5.683      1.5805E-02
   7    10.00      10.000       9.998       9.991       9.963       9.858       9.499       8.422       5.683      1.5805E-02
   8    10.00      10.000       9.998       9.991       9.963       9.858       9.499       8.422       5.683      1.5805E-02
   9    10.00      10.000       9.998       9.991       9.963       9.858       9.499       8.422       5.683      1.5805E-02
  10    10.00      10.000       9.998       9.991       9.963       9.858       9.499       8.422       5.683      1.5805E-02
1
              HEAD IN LAYER   3 AT END OF TIME STEP  18 IN STRESS PERIOD    2
  ---------------------------------------------------------------------------

            1           2           3           4           5           6           7           8           9          10
 ........................................................................................................................
   1    10.00      10.000       9.998       9.990       9.960       9.846       9.468       8.351       5.565      1.6541E-02
   2    10.00      10.000       9.998       9.990       9.960       9.846       9.468       8.351       5.565      1.6541E-02
   3    10.00      10.000       9.998       9.990       9.960       9.846       9.468       8.351       5.565      1.6541E-02
   4    10.00      10.000       9.998       9.990       9.960       9.846       9.468       8.351       5.565      1.6541E-02
   5    10.00      10.000       9.998       9.990       9.960       9.846       9.468       8.351       5.565      1.6541E-02
   6    10.00      10.000       9.998       9.990       9.960       9.846       9.468       8.351       5.565      1.6541E-02
   7    10.00      10.000       9.998       9.990       9.960       9.846       9.468       8.351       5.565      1.6541E-02
   8    10.00      10.000       9.998       9.990       9.960       9.846       9.468       8.351       5.565      1.6541E-02
   9    10.00      10.000       9.998       9.990       9.960       9.846       9.468       8.351       5.565      1.6541E-02
  10    10.00      10.000       9.998       9.990       9.960       9.846       9.468       8.351       5.565      1.6541E-02
1
              HEAD IN LAYER   4 AT END OF TIME STEP  18 IN STRESS PERIOD    2
  ---------------------------------------------------------------------------

            1           2           3           4           5           6           7           8           9          10
 ........................................................................................................................
   1    10.00       9.999       9.998       9.990       9.958       9.841       9.452       8.315       5.507      1.6481E-02
   2    10.00       9.999       9.998       9.990       9.958       9.841       9.452       8.315       5.507      1.6481E-02
   3    10.00       9.999       9.998       9.990       9.958       9.841       9.452       8.315       5.507      1.6481E-02
   4    10.00       9.999       9.998       9.990       9.958       9.841       9.452       8.315       5.507      1.6481E-02
   5    10.00       9.999       9.998       9.990       9.958       9.841       9.452       8.315       5.507      1.6481E-02
   6    10.00       9.999       9.998       9.990       9.958       9.841       9.452       8.315       5.507      1.6481E-02
   7    10.00       9.999       9.998       9.990       9.958       9.841       9.452       8.315       5.507      1.6481E-02
   8    10.00       9.999       9.998       9.990       9.958       9.841       9.452       8.315       5.507      1.6481E-02
   9    10.00       9.999       9.998       9.990       9.958       9.841       9.452       8.315       5.507      1.6481E-02
  10    10.00       9.999       9.998       9.990       9.958       9.841       9.452       8.315       5.507      1.6481E-02

 HEAD WILL BE SAVED ON UNIT   51 AT END OF TIME STEP   18, STRESS PERIOD    2

 DRAWDOWN WILL BE SAVED ON UNIT   52 AT END OF TIME STEP   18, STRESS PERIOD    2
1
  VOLUMETRIC BUDGET FOR ENTIRE MODEL AT END OF TIME STEP   18, STRESS PERIOD   2
  ------------------------------------------------------------------------------

     CUMULATIVE VOLUMES      L**3       RATES FOR THIS TIME STEP      L**3/T
     ------------------                 ------------------------

           IN:                                      IN:
           ---                                      ---
             STORAGE =      170049.5000               STORAGE =        2907.5171
       CONSTANT HEAD =           0.0000         CONSTANT HEAD =           0.0000
               WELLS =           0.0000                 WELLS =           0.0000
     HEAD DEP BOUNDS =           1.1227       HEAD DEP BOUNDS =           0.2550

            TOTAL IN =      170050.6250              TOTAL IN =        2907.7720

          OUT:                                     OUT:
          ----                                     ----
             STORAGE =           0.0000               STORAGE =           0.0000
       CONSTANT HEAD =           0.0000         CONSTANT HEAD =           0.0000
               WELLS =           0.0000                 WELLS =           0.0000
     HEAD DEP BOUNDS =      170050.7500       HEAD DEP BOUNDS =        2907.7786

           TOTAL OUT =      170050.7500             TOTAL OUT =        2907.7786

            IN - OUT =          -0.1250              IN - OUT =      -6.5918E-03

 PERCENT DISCREPANCY =          -0.00     PERCENT DISCREPANCY =          -0.00






         TIME SUMMARY AT END OF TIME STEP   18 IN STRESS PERIOD    2
                    SECONDS     MINUTES      HOURS       DAYS        YEARS
                    -----------------------------------------------------------
   TIME STEP LENGTH  86400.      1440.0      24.000      1.0000     2.73785E-03
 STRESS PERIOD TIME 1.55520E+06  25920.      432.00      18.000     4.92813E-02
         TOTAL TIME 1.64160E+06  27360.      456.00      19.000     5.20192E-02
1
 
 SOLVING FOR HEAD 

 OUTPUT CONTROL FOR STRESS PERIOD    2   TIME STEP   19
    SAVE HEAD FOR ALL LAYERS
    SAVE DRAWDOWN FOR ALL LAYERS
    SAVE BUDGET
    PRINT HEAD FOR ALL LAYERS
    PRINT BUDGET
 UBDSV1 SAVING "         STORAGE" ON UNIT  53 AT TIME STEP 19, STRESS PERIOD   2
 UBDSV2 SAVING "   CONSTANT HEAD" ON UNIT  53 AT TIME STEP 19, STRESS PERIOD   2
 UBDSV1 SAVING "FLOW RIGHT FACE " ON UNIT  53 AT TIME STEP 19, STRESS PERIOD   2
 UBDSV1 SAVING "FLOW FRONT FACE " ON UNIT  53 AT TIME STEP 19, STRESS PERIOD   2
 UBDSV1 SAVING "FLOW LOWER FACE " ON UNIT  53 AT TIME STEP 19, STRESS PERIOD   2
1
              HEAD IN LAYER   1 AT END OF TIME STEP  19 IN STRESS PERIOD    2
  ---------------------------------------------------------------------------

            1           2           3           4           5           6           7           8           9          10
 ........................................................................................................................
   1    10.00      10.000       9.998       9.991       9.963       9.859       9.503       8.436       5.717      9.1114E-03
   2    10.00      10.000       9.998       9.991       9.963       9.859       9.503       8.436       5.717      9.1114E-03
   3    10.00      10.000       9.998       9.991       9.963       9.859       9.503       8.436       5.717      9.1114E-03
   4    10.00      10.000       9.998       9.991       9.963       9.859       9.503       8.436       5.717      9.1114E-03
   5    10.00      10.000       9.998       9.991       9.963       9.859       9.503       8.436       5.717      9.1114E-03
   6    10.00      10.000       9.998       9.991       9.963       9.859       9.503       8.436       5.717      9.1114E-03
   7    10.00      10.000       9.998       9.991       9.963       9.859       9.503       8.436       5.717      9.1114E-03
   8    10.00      10.000       9.998       9.991       9.963       9.859       9.503       8.436       5.717      9.1114E-03
   9    10.00      10.000       9.998       9.991       9.963       9.859       9.503       8.436       5.717      9.1114E-03
  10    10.00      10.000       9.998       9.991       9.963       9.859       9.503       8.436       5.717      9.1114E-03
1
              HEAD IN LAYER   2 AT END OF TIME STEP  19 IN STRESS PERIOD    2
  ---------------------------------------------------------------------------

            1           2           3           4           5           6           7           8           9          10
 ........................................................................................................................
   1    10.00       9.999       9.998       9.990       9.958       9.841       9.457       8.336       5.569      1.5486E-02
   2    10.00       9.999       9.998       9.990       9.958       9.841       9.457       8.336       5.569      1.5486E-02
   3    10.00       9.999       9.998       9.990       9.958       9.841       9.457       8.336       5.569      1.5486E-02
   4    10.00       9.999       9.998       9.990       9.958       9.841       9.457       8.336       5.569      1.5486E-02
   5    10.00       9.999       9.998       9.990       9.958       9.841       9.457       8.336       5.569      1.5486E-02
   6    10.00       9.999       9.998       9.990       9.958       9.841       9.457       8.336       5.569      1.5486E-02
   7    10.00       9.999       9.998       9.990       9.958       9.841       9.457       8.336       5.569      1.5486E-02
   8    10.00       9.999       9.998       9.990       9.958       9.841       9.457       8.336       5.569      1.5486E-02
   9    10.00       9.999       9.998       9.990       9.958       9.841       9.457       8.336       5.569      1.5486E-02
  10    10.00       9.999       9.998       9.990       9.958       9.841       9.457       8.336       5.569      1.5486E-02
1
              HEAD IN LAYER   3 AT END OF TIME STEP  19 IN STRESS PERIOD    2
  ---------------------------------------------------------------------------

            1           2           3           4           5           6           7           8           9          10
 ........................................................................................................................
   1    10.00       9.999       9.997       9.988       9.954       9.829       9.424       8.266       5.457      1.6219E-02
   2    10.00       9.999       9.997       9.988       9.954       9.829       9.424       8.266       5.457      1.6219E-02
   3    10.00       9.999       9.997       9.988       9.954       9.829       9.424       8.266       5.457      1.6219E-02
   4    10.00       9.999       9.997       9.988       9.954       9.829       9.424       8.266       5.457      1.6219E-02
   5    10.00       9.999       9.997       9.988       9.954       9.829       9.424       8.266       5.457      1.6219E-02
   6    10.00       9.999       9.997       9.988       9.954       9.829       9.424       8.266       5.457      1.6219E-02
   7    10.00       9.999       9.997       9.988       9.954       9.829       9.424       8.266       5.457      1.6219E-02
   8    10.00       9.999       9.997       9.988       9.954       9.829       9.424       8.266       5.457      1.6219E-02
   9    10.00       9.999       9.997       9.988       9.954       9.829       9.424       8.266       5.457      1.6219E-02
  10    10.00       9.999       9.997       9.988       9.954       9.829       9.424       8.266       5.457      1.6219E-02
1
              HEAD IN LAYER   4 AT END OF TIME STEP  19 IN STRESS PERIOD    2
  ---------------------------------------------------------------------------

            1           2           3           4           5           6           7           8           9          10
 ........................................................................................................................
   1    10.00       9.999       9.997       9.988       9.952       9.823       9.408       8.230       5.402      1.6166E-02
   2    10.00       9.999       9.997       9.988       9.952       9.823       9.408       8.230       5.402      1.6166E-02
   3    10.00       9.999       9.997       9.988       9.952       9.823       9.408       8.230       5.402      1.6166E-02
   4    10.00       9.999       9.997       9.988       9.952       9.823       9.408       8.230       5.402      1.6166E-02
   5    10.00       9.999       9.997       9.988       9.952       9.823       9.408       8.230       5.402      1.6166E-02
   6    10.00       9.999       9.997       9.988       9.952       9.823       9.408       8.230       5.402      1.6166E-02
   7    10.00       9.999       9.997       9.988       9.952       9.823       9.408       8.230       5.402      1.6166E-02
   8    10.00       9.999       9.997       9.988       9.952       9.823       9.408       8.230       5.402      1.6166E-02
   9    10.00       9.999       9.997       9.988       9.952       9.823       9.408       8.230       5.402      1.6166E-02
  10    10.00       9.999       9.997       9.988       9.952       9.823       9.408       8.230       5.402      1.6166E-02

 HEAD WILL BE SAVED ON UNIT   51 AT END OF TIME STEP   19, STRESS PERIOD    2

 DRAWDOWN WILL BE SAVED ON UNIT   52 AT END OF TIME STEP   19, STRESS PERIOD    2
1
  VOLUMETRIC BUDGET FOR ENTIRE MODEL AT END OF TIME STEP   19, STRESS PERIOD   2
  ------------------------------------------------------------------------------

     CUMULATIVE VOLUMES      L**3       RATES FOR THIS TIME STEP      L**3/T
     ------------------                 ------------------------

           IN:                                      IN:
           ---                                      ---
             STORAGE =      172898.3281               STORAGE =        2848.8311
       CONSTANT HEAD =           0.0000         CONSTANT HEAD =           0.0000
               WELLS =           0.0000                 WELLS =           0.0000
     HEAD DEP BOUNDS =           1.4353       HEAD DEP BOUNDS =           0.3125

            TOTAL IN =      172899.7656              TOTAL IN =        2849.1436

          OUT:                                     OUT:
          ----                                     ----
             STORAGE =           0.0000               STORAGE =           0.0000
       CONSTANT HEAD =           0.0000         CONSTANT HEAD =           0.0000
               WELLS =           0.0000                 WELLS =           0.0000
     HEAD DEP BOUNDS =      172899.8906       HEAD DEP BOUNDS =        2849.1426

           TOTAL OUT =      172899.8906             TOTAL OUT =        2849.1426

            IN - OUT =          -0.1250              IN - OUT =       9.7656E-04

 PERCENT DISCREPANCY =          -0.00     PERCENT DISCREPANCY =           0.00






         TIME SUMMARY AT END OF TIME STEP   19 IN STRESS PERIOD    2
                    SECONDS     MINUTES      HOURS       DAYS        YEARS
                    -----------------------------------------------------------
   TIME STEP LENGTH  86400.      1440.0      24.000      1.0000     2.73785E-03
 STRESS PERIOD TIME 1.64160E+06  27360.      456.00      19.000     5.20192E-02
         TOTAL TIME 1.72800E+06  28800.      480.00      20.000     5.47570E-02
1
 
 SOLVING FOR HEAD 

 OUTPUT CONTROL FOR STRESS PERIOD    2   TIME STEP   20
    SAVE HEAD FOR ALL LAYERS
    SAVE DRAWDOWN FOR ALL LAYERS
    SAVE BUDGET
    PRINT HEAD FOR ALL LAYERS
    PRINT BUDGET
 UBDSV1 SAVING "         STORAGE" ON UNIT  53 AT TIME STEP 20, STRESS PERIOD   2
 UBDSV2 SAVING "   CONSTANT HEAD" ON UNIT  53 AT TIME STEP 20, STRESS PERIOD   2
 UBDSV1 SAVING "FLOW RIGHT FACE " ON UNIT  53 AT TIME STEP 20, STRESS PERIOD   2
 UBDSV1 SAVING "FLOW FRONT FACE " ON UNIT  53 AT TIME STEP 20, STRESS PERIOD   2
 UBDSV1 SAVING "FLOW LOWER FACE " ON UNIT  53 AT TIME STEP 20, STRESS PERIOD   2
1
              HEAD IN LAYER   1 AT END OF TIME STEP  20 IN STRESS PERIOD    2
  ---------------------------------------------------------------------------

            1           2           3           4           5           6           7           8           9          10
 ........................................................................................................................
   1    10.00       9.999       9.998       9.990       9.958       9.843       9.461       8.350       5.602      8.9061E-03
   2    10.00       9.999       9.998       9.990       9.958       9.843       9.461       8.350       5.602      8.9061E-03
   3    10.00       9.999       9.998       9.990       9.958       9.843       9.461       8.350       5.602      8.9061E-03
   4    10.00       9.999       9.998       9.990       9.958       9.843       9.461       8.350       5.602      8.9061E-03
   5    10.00       9.999       9.998       9.990       9.958       9.843       9.461       8.350       5.602      8.9061E-03
   6    10.00       9.999       9.998       9.990       9.958       9.843       9.461       8.350       5.602      8.9061E-03
   7    10.00       9.999       9.998       9.990       9.958       9.843       9.461       8.350       5.602      8.9061E-03
   8    10.00       9.999       9.998       9.990       9.958       9.843       9.461       8.350       5.602      8.9061E-03
   9    10.00       9.999       9.998       9.990       9.958       9.843       9.461       8.350       5.602      8.9061E-03
  10    10.00       9.999       9.998       9.990       9.958       9.843       9.461       8.350       5.602      8.9061E-03
1
              HEAD IN LAYER   2 AT END OF TIME STEP  20 IN STRESS PERIOD    2
  ---------------------------------------------------------------------------

            1           2           3           4           5           6           7           8           9          10
 ........................................................................................................................
   1    10.00       9.999       9.997       9.988       9.952       9.824       9.413       8.251       5.462      1.5183E-02
   2    10.00       9.999       9.997       9.988       9.952       9.824       9.413       8.251       5.462      1.5183E-02
   3    10.00       9.999       9.997       9.988       9.952       9.824       9.413       8.251       5.462      1.5183E-02
   4    10.00       9.999       9.997       9.988       9.952       9.824       9.413       8.251       5.462      1.5183E-02
   5    10.00       9.999       9.997       9.988       9.952       9.824       9.413       8.251       5.462      1.5183E-02
   6    10.00       9.999       9.997       9.988       9.952       9.824       9.413       8.251       5.462      1.5183E-02
   7    10.00       9.999       9.997       9.988       9.952       9.824       9.413       8.251       5.462      1.5183E-02
   8    10.00       9.999       9.997       9.988       9.952       9.824       9.413       8.251       5.462      1.5183E-02
   9    10.00       9.999       9.997       9.988       9.952       9.824       9.413       8.251       5.462      1.5183E-02
  10    10.00       9.999       9.997       9.988       9.952       9.824       9.413       8.251       5.462      1.5183E-02
1
              HEAD IN LAYER   3 AT END OF TIME STEP  20 IN STRESS PERIOD    2
  ---------------------------------------------------------------------------

            1           2           3           4           5           6           7           8           9          10
 ........................................................................................................................
   1    10.00       9.999       9.997       9.987       9.948       9.812       9.381       8.182       5.355      1.5914E-02
   2    10.00       9.999       9.997       9.987       9.948       9.812       9.381       8.182       5.355      1.5914E-02
   3    10.00       9.999       9.997       9.987       9.948       9.812       9.381       8.182       5.355      1.5914E-02
   4    10.00       9.999       9.997       9.987       9.948       9.812       9.381       8.182       5.355      1.5914E-02
   5    10.00       9.999       9.997       9.987       9.948       9.812       9.381       8.182       5.355      1.5914E-02
   6    10.00       9.999       9.997       9.987       9.948       9.812       9.381       8.182       5.355      1.5914E-02
   7    10.00       9.999       9.997       9.987       9.948       9.812       9.381       8.182       5.355      1.5914E-02
   8    10.00       9.999       9.997       9.987       9.948       9.812       9.381       8.182       5.355      1.5914E-02
   9    10.00       9.999       9.997       9.987       9.948       9.812       9.381       8.182       5.355      1.5914E-02
  10    10.00       9.999       9.997       9.987       9.948       9.812       9.381       8.182       5.355      1.5914E-02
1
              HEAD IN LAYER   4 AT END OF TIME STEP  20 IN STRESS PERIOD    2
  ---------------------------------------------------------------------------

            1           2           3           4           5           6           7           8           9          10
 ........................................................................................................................
   1    10.00       9.999       9.997       9.986       9.946       9.805       9.364       8.147       5.302      1.5866E-02
   2    10.00       9.999       9.997       9.986       9.946       9.805       9.364       8.147       5.302      1.5866E-02
   3    10.00       9.999       9.997       9.986       9.946       9.805       9.364       8.147       5.302      1.5866E-02
   4    10.00       9.999       9.997       9.986       9.946       9.805       9.364       8.147       5.302      1.5866E-02
   5    10.00       9.999       9.997       9.986       9.946       9.805       9.364       8.147       5.302      1.5866E-02
   6    10.00       9.999       9.997       9.986       9.946       9.805       9.364       8.147       5.302      1.5866E-02
   7    10.00       9.999       9.997       9.986       9.946       9.805       9.364       8.147       5.302      1.5866E-02
   8    10.00       9.999       9.997       9.986       9.946       9.805       9.364       8.147       5.302      1.5866E-02
   9    10.00       9.999       9.997       9.986       9.946       9.805       9.364       8.147       5.302      1.5866E-02
  10    10.00       9.999       9.997       9.986       9.946       9.805       9.364       8.147       5.302      1.5866E-02

 HEAD WILL BE SAVED ON UNIT   51 AT END OF TIME STEP   20, STRESS PERIOD    2

 DRAWDOWN WILL BE SAVED ON UNIT   52 AT END OF TIME STEP   20, STRESS PERIOD    2
1
  VOLUMETRIC BUDGET FOR ENTIRE MODEL AT END OF TIME STEP   20, STRESS PERIOD   2
  ------------------------------------------------------------------------------

     CUMULATIVE VOLUMES      L**3       RATES FOR THIS TIME STEP      L**3/T
     ------------------                 ------------------------

           IN:                                      IN:
           ---                                      ---
             STORAGE =      175691.3750               STORAGE =        2793.0544
       CONSTANT HEAD =           0.0000         CONSTANT HEAD =           0.0000
               WELLS =           0.0000                 WELLS =           0.0000
     HEAD DEP BOUNDS =           1.8147       HEAD DEP BOUNDS =           0.3795

            TOTAL IN =      175693.1875              TOTAL IN =        2793.4338

          OUT:                                     OUT:
          ----                                     ----
             STORAGE =           0.0000               STORAGE =           0.0000
       CONSTANT HEAD =           0.0000         CONSTANT HEAD =           0.0000
               WELLS =           0.0000                 WELLS =           0.0000
     HEAD DEP BOUNDS =      175693.3281       HEAD DEP BOUNDS =        2793.4397

           TOTAL OUT =      175693.3281             TOTAL OUT =        2793.4397

            IN - OUT =          -0.1406              IN - OUT =      -5.8594E-03

 PERCENT DISCREPANCY =          -0.00     PERCENT DISCREPANCY =          -0.00






         TIME SUMMARY AT END OF TIME STEP   20 IN STRESS PERIOD    2
                    SECONDS     MINUTES      HOURS       DAYS        YEARS
                    -----------------------------------------------------------
   TIME STEP LENGTH  86400.      1440.0      24.000      1.0000     2.73785E-03
 STRESS PERIOD TIME 1.72800E+06  28800.      480.00      20.000     5.47570E-02
         TOTAL TIME 1.81440E+06  30240.      504.00      21.000     5.74949E-02
1
 
 SOLVING FOR HEAD 

 OUTPUT CONTROL FOR STRESS PERIOD    2   TIME STEP   21
    SAVE HEAD FOR ALL LAYERS
    SAVE DRAWDOWN FOR ALL LAYERS
    SAVE BUDGET
    PRINT HEAD FOR ALL LAYERS
    PRINT BUDGET
 UBDSV1 SAVING "         STORAGE" ON UNIT  53 AT TIME STEP 21, STRESS PERIOD   2
 UBDSV2 SAVING "   CONSTANT HEAD" ON UNIT  53 AT TIME STEP 21, STRESS PERIOD   2
 UBDSV1 SAVING "FLOW RIGHT FACE " ON UNIT  53 AT TIME STEP 21, STRESS PERIOD   2
 UBDSV1 SAVING "FLOW FRONT FACE " ON UNIT  53 AT TIME STEP 21, STRESS PERIOD   2
 UBDSV1 SAVING "FLOW LOWER FACE " ON UNIT  53 AT TIME STEP 21, STRESS PERIOD   2
1
              HEAD IN LAYER   1 AT END OF TIME STEP  21 IN STRESS PERIOD    2
  ---------------------------------------------------------------------------

            1           2           3           4           5           6           7           8           9          10
 ........................................................................................................................
   1    10.00       9.999       9.997       9.988       9.952       9.826       9.418       8.264       5.493      8.7117E-03
   2    10.00       9.999       9.997       9.988       9.952       9.826       9.418       8.264       5.493      8.7117E-03
   3    10.00       9.999       9.997       9.988       9.952       9.826       9.418       8.264       5.493      8.7117E-03
   4    10.00       9.999       9.997       9.988       9.952       9.826       9.418       8.264       5.493      8.7117E-03
   5    10.00       9.999       9.997       9.988       9.952       9.826       9.418       8.264       5.493      8.7117E-03
   6    10.00       9.999       9.997       9.988       9.952       9.826       9.418       8.264       5.493      8.7117E-03
   7    10.00       9.999       9.997       9.988       9.952       9.826       9.418       8.264       5.493      8.7117E-03
   8    10.00       9.999       9.997       9.988       9.952       9.826       9.418       8.264       5.493      8.7117E-03
   9    10.00       9.999       9.997       9.988       9.952       9.826       9.418       8.264       5.493      8.7117E-03
  10    10.00       9.999       9.997       9.988       9.952       9.826       9.418       8.264       5.493      8.7117E-03
1
              HEAD IN LAYER   2 AT END OF TIME STEP  21 IN STRESS PERIOD    2
  ---------------------------------------------------------------------------

            1           2           3           4           5           6           7           8           9          10
 ........................................................................................................................
   1    10.00       9.999       9.997       9.986       9.946       9.806       9.370       8.168       5.359      1.4895E-02
   2    10.00       9.999       9.997       9.986       9.946       9.806       9.370       8.168       5.359      1.4895E-02
   3    10.00       9.999       9.997       9.986       9.946       9.806       9.370       8.168       5.359      1.4895E-02
   4    10.00       9.999       9.997       9.986       9.946       9.806       9.370       8.168       5.359      1.4895E-02
   5    10.00       9.999       9.997       9.986       9.946       9.806       9.370       8.168       5.359      1.4895E-02
   6    10.00       9.999       9.997       9.986       9.946       9.806       9.370       8.168       5.359      1.4895E-02
   7    10.00       9.999       9.997       9.986       9.946       9.806       9.370       8.168       5.359      1.4895E-02
   8    10.00       9.999       9.997       9.986       9.946       9.806       9.370       8.168       5.359      1.4895E-02
   9    10.00       9.999       9.997       9.986       9.946       9.806       9.370       8.168       5.359      1.4895E-02
  10    10.00       9.999       9.997       9.986       9.946       9.806       9.370       8.168       5.359      1.4895E-02
1
              HEAD IN LAYER   3 AT END OF TIME STEP  21 IN STRESS PERIOD    2
  ---------------------------------------------------------------------------

            1           2           3           4           5           6           7           8           9          10
 ........................................................................................................................
   1    10.00       9.999       9.996       9.985       9.941       9.793       9.336       8.099       5.257      1.5623E-02
   2    10.00       9.999       9.996       9.985       9.941       9.793       9.336       8.099       5.257      1.5623E-02
   3    10.00       9.999       9.996       9.985       9.941       9.793       9.336       8.099       5.257      1.5623E-02
   4    10.00       9.999       9.996       9.985       9.941       9.793       9.336       8.099       5.257      1.5623E-02
   5    10.00       9.999       9.996       9.985       9.941       9.793       9.336       8.099       5.257      1.5623E-02
   6    10.00       9.999       9.996       9.985       9.941       9.793       9.336       8.099       5.257      1.5623E-02
   7    10.00       9.999       9.996       9.985       9.941       9.793       9.336       8.099       5.257      1.5623E-02
   8    10.00       9.999       9.996       9.985       9.941       9.793       9.336       8.099       5.257      1.5623E-02
   9    10.00       9.999       9.996       9.985       9.941       9.793       9.336       8.099       5.257      1.5623E-02
  10    10.00       9.999       9.996       9.985       9.941       9.793       9.336       8.099       5.257      1.5623E-02
1
              HEAD IN LAYER   4 AT END OF TIME STEP  21 IN STRESS PERIOD    2
  ---------------------------------------------------------------------------

            1           2           3           4           5           6           7           8           9          10
 ........................................................................................................................
   1    10.00       9.999       9.996       9.984       9.939       9.786       9.320       8.065       5.207      1.5580E-02
   2    10.00       9.999       9.996       9.984       9.939       9.786       9.320       8.065       5.207      1.5580E-02
   3    10.00       9.999       9.996       9.984       9.939       9.786       9.320       8.065       5.207      1.5580E-02
   4    10.00       9.999       9.996       9.984       9.939       9.786       9.320       8.065       5.207      1.5580E-02
   5    10.00       9.999       9.996       9.984       9.939       9.786       9.320       8.065       5.207      1.5580E-02
   6    10.00       9.999       9.996       9.984       9.939       9.786       9.320       8.065       5.207      1.5580E-02
   7    10.00       9.999       9.996       9.984       9.939       9.786       9.320       8.065       5.207      1.5580E-02
   8    10.00       9.999       9.996       9.984       9.939       9.786       9.320       8.065       5.207      1.5580E-02
   9    10.00       9.999       9.996       9.984       9.939       9.786       9.320       8.065       5.207      1.5580E-02
  10    10.00       9.999       9.996       9.984       9.939       9.786       9.320       8.065       5.207      1.5580E-02

 HEAD WILL BE SAVED ON UNIT   51 AT END OF TIME STEP   21, STRESS PERIOD    2

 DRAWDOWN WILL BE SAVED ON UNIT   52 AT END OF TIME STEP   21, STRESS PERIOD    2
1
  VOLUMETRIC BUDGET FOR ENTIRE MODEL AT END OF TIME STEP   21, STRESS PERIOD   2
  ------------------------------------------------------------------------------

     CUMULATIVE VOLUMES      L**3       RATES FOR THIS TIME STEP      L**3/T
     ------------------                 ------------------------

           IN:                                      IN:
           ---                                      ---
             STORAGE =      178431.3750               STORAGE =        2739.9978
       CONSTANT HEAD =           0.0000         CONSTANT HEAD =           0.0000
               WELLS =           0.0000                 WELLS =           0.0000
     HEAD DEP BOUNDS =           2.2710       HEAD DEP BOUNDS =           0.4563

            TOTAL IN =      178433.6406              TOTAL IN =        2740.4541

          OUT:                                     OUT:
          ----                                     ----
             STORAGE =           0.0000               STORAGE =           0.0000
       CONSTANT HEAD =           0.0000         CONSTANT HEAD =           0.0000
               WELLS =           0.0000                 WELLS =           0.0000
     HEAD DEP BOUNDS =      178433.7812       HEAD DEP BOUNDS =        2740.4602

           TOTAL OUT =      178433.7812             TOTAL OUT =        2740.4602

            IN - OUT =          -0.1406              IN - OUT =      -6.1035E-03

 PERCENT DISCREPANCY =          -0.00     PERCENT DISCREPANCY =          -0.00






         TIME SUMMARY AT END OF TIME STEP   21 IN STRESS PERIOD    2
                    SECONDS     MINUTES      HOURS       DAYS        YEARS
                    -----------------------------------------------------------
   TIME STEP LENGTH  86400.      1440.0      24.000      1.0000     2.73785E-03
 STRESS PERIOD TIME 1.81440E+06  30240.      504.00      21.000     5.74949E-02
         TOTAL TIME 1.90080E+06  31680.      528.00      22.000     6.02327E-02
1
 
 SOLVING FOR HEAD 

 OUTPUT CONTROL FOR STRESS PERIOD    2   TIME STEP   22
    SAVE HEAD FOR ALL LAYERS
    SAVE DRAWDOWN FOR ALL LAYERS
    SAVE BUDGET
    PRINT HEAD FOR ALL LAYERS
    PRINT BUDGET
 UBDSV1 SAVING "         STORAGE" ON UNIT  53 AT TIME STEP 22, STRESS PERIOD   2
 UBDSV2 SAVING "   CONSTANT HEAD" ON UNIT  53 AT TIME STEP 22, STRESS PERIOD   2
 UBDSV1 SAVING "FLOW RIGHT FACE " ON UNIT  53 AT TIME STEP 22, STRESS PERIOD   2
 UBDSV1 SAVING "FLOW FRONT FACE " ON UNIT  53 AT TIME STEP 22, STRESS PERIOD   2
 UBDSV1 SAVING "FLOW LOWER FACE " ON UNIT  53 AT TIME STEP 22, STRESS PERIOD   2
1
              HEAD IN LAYER   1 AT END OF TIME STEP  22 IN STRESS PERIOD    2
  ---------------------------------------------------------------------------

            1           2           3           4           5           6           7           8           9          10
 ........................................................................................................................
   1    10.00       9.999       9.997       9.986       9.946       9.808       9.375       8.181       5.389      8.5274E-03
   2    10.00       9.999       9.997       9.986       9.946       9.808       9.375       8.181       5.389      8.5274E-03
   3    10.00       9.999       9.997       9.986       9.946       9.808       9.375       8.181       5.389      8.5274E-03
   4    10.00       9.999       9.997       9.986       9.946       9.808       9.375       8.181       5.389      8.5274E-03
   5    10.00       9.999       9.997       9.986       9.946       9.808       9.375       8.181       5.389      8.5274E-03
   6    10.00       9.999       9.997       9.986       9.946       9.808       9.375       8.181       5.389      8.5274E-03
   7    10.00       9.999       9.997       9.986       9.946       9.808       9.375       8.181       5.389      8.5274E-03
   8    10.00       9.999       9.997       9.986       9.946       9.808       9.375       8.181       5.389      8.5274E-03
   9    10.00       9.999       9.997       9.986       9.946       9.808       9.375       8.181       5.389      8.5274E-03
  10    10.00       9.999       9.997       9.986       9.946       9.808       9.375       8.181       5.389      8.5274E-03
1
              HEAD IN LAYER   2 AT END OF TIME STEP  22 IN STRESS PERIOD    2
  ---------------------------------------------------------------------------

            1           2           3           4           5           6           7           8           9          10
 ........................................................................................................................
   1    10.00       9.999       9.996       9.984       9.939       9.788       9.325       8.086       5.262      1.4620E-02
   2    10.00       9.999       9.996       9.984       9.939       9.788       9.325       8.086       5.262      1.4620E-02
   3    10.00       9.999       9.996       9.984       9.939       9.788       9.325       8.086       5.262      1.4620E-02
   4    10.00       9.999       9.996       9.984       9.939       9.788       9.325       8.086       5.262      1.4620E-02
   5    10.00       9.999       9.996       9.984       9.939       9.788       9.325       8.086       5.262      1.4620E-02
   6    10.00       9.999       9.996       9.984       9.939       9.788       9.325       8.086       5.262      1.4620E-02
   7    10.00       9.999       9.996       9.984       9.939       9.788       9.325       8.086       5.262      1.4620E-02
   8    10.00       9.999       9.996       9.984       9.939       9.788       9.325       8.086       5.262      1.4620E-02
   9    10.00       9.999       9.996       9.984       9.939       9.788       9.325       8.086       5.262      1.4620E-02
  10    10.00       9.999       9.996       9.984       9.939       9.788       9.325       8.086       5.262      1.4620E-02
1
              HEAD IN LAYER   3 AT END OF TIME STEP  22 IN STRESS PERIOD    2
  ---------------------------------------------------------------------------

            1           2           3           4           5           6           7           8           9          10
 ........................................................................................................................
   1    10.00       9.999       9.996       9.982       9.934       9.774       9.292       8.018       5.164      1.5345E-02
   2    10.00       9.999       9.996       9.982       9.934       9.774       9.292       8.018       5.164      1.5345E-02
   3    10.00       9.999       9.996       9.982       9.934       9.774       9.292       8.018       5.164      1.5345E-02
   4    10.00       9.999       9.996       9.982       9.934       9.774       9.292       8.018       5.164      1.5345E-02
   5    10.00       9.999       9.996       9.982       9.934       9.774       9.292       8.018       5.164      1.5345E-02
   6    10.00       9.999       9.996       9.982       9.934       9.774       9.292       8.018       5.164      1.5345E-02
   7    10.00       9.999       9.996       9.982       9.934       9.774       9.292       8.018       5.164      1.5345E-02
   8    10.00       9.999       9.996       9.982       9.934       9.774       9.292       8.018       5.164      1.5345E-02
   9    10.00       9.999       9.996       9.982       9.934       9.774       9.292       8.018       5.164      1.5345E-02
  10    10.00       9.999       9.996       9.982       9.934       9.774       9.292       8.018       5.164      1.5345E-02
1
              HEAD IN LAYER   4 AT END OF TIME STEP  22 IN STRESS PERIOD    2
  ---------------------------------------------------------------------------

            1           2           3           4           5           6           7           8           9          10
 ........................................................................................................................
   1    10.00       9.999       9.995       9.982       9.932       9.767       9.275       7.985       5.116      1.5307E-02
   2    10.00       9.999       9.995       9.982       9.932       9.767       9.275       7.985       5.116      1.5307E-02
   3    10.00       9.999       9.995       9.982       9.932       9.767       9.275       7.985       5.116      1.5307E-02
   4    10.00       9.999       9.995       9.982       9.932       9.767       9.275       7.985       5.116      1.5307E-02
   5    10.00       9.999       9.995       9.982       9.932       9.767       9.275       7.985       5.116      1.5307E-02
   6    10.00       9.999       9.995       9.982       9.932       9.767       9.275       7.985       5.116      1.5307E-02
   7    10.00       9.999       9.995       9.982       9.932       9.767       9.275       7.985       5.116      1.5307E-02
   8    10.00       9.999       9.995       9.982       9.932       9.767       9.275       7.985       5.116      1.5307E-02
   9    10.00       9.999       9.995       9.982       9.932       9.767       9.275       7.985       5.116      1.5307E-02
  10    10.00       9.999       9.995       9.982       9.932       9.767       9.275       7.985       5.116      1.5307E-02

 HEAD WILL BE SAVED ON UNIT   51 AT END OF TIME STEP   22, STRESS PERIOD    2

 DRAWDOWN WILL BE SAVED ON UNIT   52 AT END OF TIME STEP   22, STRESS PERIOD    2
1
  VOLUMETRIC BUDGET FOR ENTIRE MODEL AT END OF TIME STEP   22, STRESS PERIOD   2
  ------------------------------------------------------------------------------

     CUMULATIVE VOLUMES      L**3       RATES FOR THIS TIME STEP      L**3/T
     ------------------                 ------------------------

           IN:                                      IN:
           ---                                      ---
             STORAGE =      181120.8438               STORAGE =        2689.4634
       CONSTANT HEAD =           0.0000         CONSTANT HEAD =           0.0000
               WELLS =           0.0000                 WELLS =           0.0000
     HEAD DEP BOUNDS =           2.8153       HEAD DEP BOUNDS =           0.5444

            TOTAL IN =      181123.6562              TOTAL IN =        2690.0078

          OUT:                                     OUT:
          ----                                     ----
             STORAGE =           0.0000               STORAGE =           0.0000
       CONSTANT HEAD =           0.0000         CONSTANT HEAD =           0.0000
               WELLS =           0.0000                 WELLS =           0.0000
     HEAD DEP BOUNDS =      181123.7969       HEAD DEP BOUNDS =        2690.0146

           TOTAL OUT =      181123.7969             TOTAL OUT =        2690.0146

            IN - OUT =          -0.1406              IN - OUT =      -6.8359E-03

 PERCENT DISCREPANCY =          -0.00     PERCENT DISCREPANCY =          -0.00






         TIME SUMMARY AT END OF TIME STEP   22 IN STRESS PERIOD    2
                    SECONDS     MINUTES      HOURS       DAYS        YEARS
                    -----------------------------------------------------------
   TIME STEP LENGTH  86400.      1440.0      24.000      1.0000     2.73785E-03
 STRESS PERIOD TIME 1.90080E+06  31680.      528.00      22.000     6.02327E-02
         TOTAL TIME 1.98720E+06  33120.      552.00      23.000     6.29706E-02
1
 
 SOLVING FOR HEAD 

 OUTPUT CONTROL FOR STRESS PERIOD    2   TIME STEP   23
    SAVE HEAD FOR ALL LAYERS
    SAVE DRAWDOWN FOR ALL LAYERS
    SAVE BUDGET
    PRINT HEAD FOR ALL LAYERS
    PRINT BUDGET
 UBDSV1 SAVING "         STORAGE" ON UNIT  53 AT TIME STEP 23, STRESS PERIOD   2
 UBDSV2 SAVING "   CONSTANT HEAD" ON UNIT  53 AT TIME STEP 23, STRESS PERIOD   2
 UBDSV1 SAVING "FLOW RIGHT FACE " ON UNIT  53 AT TIME STEP 23, STRESS PERIOD   2
 UBDSV1 SAVING "FLOW FRONT FACE " ON UNIT  53 AT TIME STEP 23, STRESS PERIOD   2
 UBDSV1 SAVING "FLOW LOWER FACE " ON UNIT  53 AT TIME STEP 23, STRESS PERIOD   2
1
              HEAD IN LAYER   1 AT END OF TIME STEP  23 IN STRESS PERIOD    2
  ---------------------------------------------------------------------------

            1           2           3           4           5           6           7           8           9          10
 ........................................................................................................................
   1    10.00       9.999       9.996       9.984       9.940       9.789       9.331       8.099       5.290      8.3523E-03
   2    10.00       9.999       9.996       9.984       9.940       9.789       9.331       8.099       5.290      8.3523E-03
   3    10.00       9.999       9.996       9.984       9.940       9.789       9.331       8.099       5.290      8.3523E-03
   4    10.00       9.999       9.996       9.984       9.940       9.789       9.331       8.099       5.290      8.3523E-03
   5    10.00       9.999       9.996       9.984       9.940       9.789       9.331       8.099       5.290      8.3523E-03
   6    10.00       9.999       9.996       9.984       9.940       9.789       9.331       8.099       5.290      8.3523E-03
   7    10.00       9.999       9.996       9.984       9.940       9.789       9.331       8.099       5.290      8.3523E-03
   8    10.00       9.999       9.996       9.984       9.940       9.789       9.331       8.099       5.290      8.3523E-03
   9    10.00       9.999       9.996       9.984       9.940       9.789       9.331       8.099       5.290      8.3523E-03
  10    10.00       9.999       9.996       9.984       9.940       9.789       9.331       8.099       5.290      8.3523E-03
1
              HEAD IN LAYER   2 AT END OF TIME STEP  23 IN STRESS PERIOD    2
  ---------------------------------------------------------------------------

            1           2           3           4           5           6           7           8           9          10
 ........................................................................................................................
   1    10.00       9.999       9.995       9.982       9.932       9.768       9.281       8.005       5.169      1.4359E-02
   2    10.00       9.999       9.995       9.982       9.932       9.768       9.281       8.005       5.169      1.4359E-02
   3    10.00       9.999       9.995       9.982       9.932       9.768       9.281       8.005       5.169      1.4359E-02
   4    10.00       9.999       9.995       9.982       9.932       9.768       9.281       8.005       5.169      1.4359E-02
   5    10.00       9.999       9.995       9.982       9.932       9.768       9.281       8.005       5.169      1.4359E-02
   6    10.00       9.999       9.995       9.982       9.932       9.768       9.281       8.005       5.169      1.4359E-02
   7    10.00       9.999       9.995       9.982       9.932       9.768       9.281       8.005       5.169      1.4359E-02
   8    10.00       9.999       9.995       9.982       9.932       9.768       9.281       8.005       5.169      1.4359E-02
   9    10.00       9.999       9.995       9.982       9.932       9.768       9.281       8.005       5.169      1.4359E-02
  10    10.00       9.999       9.995       9.982       9.932       9.768       9.281       8.005       5.169      1.4359E-02
1
              HEAD IN LAYER   3 AT END OF TIME STEP  23 IN STRESS PERIOD    2
  ---------------------------------------------------------------------------

            1           2           3           4           5           6           7           8           9          10
 ........................................................................................................................
   1    10.00       9.999       9.995       9.980       9.927       9.754       9.247       7.939       5.075      1.5080E-02
   2    10.00       9.999       9.995       9.980       9.927       9.754       9.247       7.939       5.075      1.5080E-02
   3    10.00       9.999       9.995       9.980       9.927       9.754       9.247       7.939       5.075      1.5080E-02
   4    10.00       9.999       9.995       9.980       9.927       9.754       9.247       7.939       5.075      1.5080E-02
   5    10.00       9.999       9.995       9.980       9.927       9.754       9.247       7.939       5.075      1.5080E-02
   6    10.00       9.999       9.995       9.980       9.927       9.754       9.247       7.939       5.075      1.5080E-02
   7    10.00       9.999       9.995       9.980       9.927       9.754       9.247       7.939       5.075      1.5080E-02
   8    10.00       9.999       9.995       9.980       9.927       9.754       9.247       7.939       5.075      1.5080E-02
   9    10.00       9.999       9.995       9.980       9.927       9.754       9.247       7.939       5.075      1.5080E-02
  10    10.00       9.999       9.995       9.980       9.927       9.754       9.247       7.939       5.075      1.5080E-02
1
              HEAD IN LAYER   4 AT END OF TIME STEP  23 IN STRESS PERIOD    2
  ---------------------------------------------------------------------------

            1           2           3           4           5           6           7           8           9          10
 ........................................................................................................................
   1    10.00       9.999       9.995       9.979       9.924       9.747       9.230       7.906       5.029      1.5047E-02
   2    10.00       9.999       9.995       9.979       9.924       9.747       9.230       7.906       5.029      1.5047E-02
   3    10.00       9.999       9.995       9.979       9.924       9.747       9.230       7.906       5.029      1.5047E-02
   4    10.00       9.999       9.995       9.979       9.924       9.747       9.230       7.906       5.029      1.5047E-02
   5    10.00       9.999       9.995       9.979       9.924       9.747       9.230       7.906       5.029      1.5047E-02
   6    10.00       9.999       9.995       9.979       9.924       9.747       9.230       7.906       5.029      1.5047E-02
   7    10.00       9.999       9.995       9.979       9.924       9.747       9.230       7.906       5.029      1.5047E-02
   8    10.00       9.999       9.995       9.979       9.924       9.747       9.230       7.906       5.029      1.5047E-02
   9    10.00       9.999       9.995       9.979       9.924       9.747       9.230       7.906       5.029      1.5047E-02
  10    10.00       9.999       9.995       9.979       9.924       9.747       9.230       7.906       5.029      1.5047E-02

 HEAD WILL BE SAVED ON UNIT   51 AT END OF TIME STEP   23, STRESS PERIOD    2

 DRAWDOWN WILL BE SAVED ON UNIT   52 AT END OF TIME STEP   23, STRESS PERIOD    2
1
  VOLUMETRIC BUDGET FOR ENTIRE MODEL AT END OF TIME STEP   23, STRESS PERIOD   2
  ------------------------------------------------------------------------------

     CUMULATIVE VOLUMES      L**3       RATES FOR THIS TIME STEP      L**3/T
     ------------------                 ------------------------

           IN:                                      IN:
           ---                                      ---
             STORAGE =      183762.1094               STORAGE =        2641.2717
       CONSTANT HEAD =           0.0000         CONSTANT HEAD =           0.0000
               WELLS =           0.0000                 WELLS =           0.0000
     HEAD DEP BOUNDS =           3.4599       HEAD DEP BOUNDS =           0.6445

            TOTAL IN =      183765.5625              TOTAL IN =        2641.9163

          OUT:                                     OUT:
          ----                                     ----
             STORAGE =           0.0000               STORAGE =           0.0000
       CONSTANT HEAD =           0.0000         CONSTANT HEAD =           0.0000
               WELLS =           0.0000                 WELLS =           0.0000
     HEAD DEP BOUNDS =      183765.7188       HEAD DEP BOUNDS =        2641.9290

           TOTAL OUT =      183765.7188             TOTAL OUT =        2641.9290

            IN - OUT =          -0.1562              IN - OUT =      -1.2695E-02

 PERCENT DISCREPANCY =          -0.00     PERCENT DISCREPANCY =          -0.00






         TIME SUMMARY AT END OF TIME STEP   23 IN STRESS PERIOD    2
                    SECONDS     MINUTES      HOURS       DAYS        YEARS
                    -----------------------------------------------------------
   TIME STEP LENGTH  86400.      1440.0      24.000      1.0000     2.73785E-03
 STRESS PERIOD TIME 1.98720E+06  33120.      552.00      23.000     6.29706E-02
         TOTAL TIME 2.07360E+06  34560.      576.00      24.000     6.57084E-02
1
 
 SOLVING FOR HEAD 

 OUTPUT CONTROL FOR STRESS PERIOD    2   TIME STEP   24
    SAVE HEAD FOR ALL LAYERS
    SAVE DRAWDOWN FOR ALL LAYERS
    SAVE BUDGET
    PRINT HEAD FOR ALL LAYERS
    PRINT BUDGET
 UBDSV1 SAVING "         STORAGE" ON UNIT  53 AT TIME STEP 24, STRESS PERIOD   2
 UBDSV2 SAVING "   CONSTANT HEAD" ON UNIT  53 AT TIME STEP 24, STRESS PERIOD   2
 UBDSV1 SAVING "FLOW RIGHT FACE " ON UNIT  53 AT TIME STEP 24, STRESS PERIOD   2
 UBDSV1 SAVING "FLOW FRONT FACE " ON UNIT  53 AT TIME STEP 24, STRESS PERIOD   2
 UBDSV1 SAVING "FLOW LOWER FACE " ON UNIT  53 AT TIME STEP 24, STRESS PERIOD   2
1
              HEAD IN LAYER   1 AT END OF TIME STEP  24 IN STRESS PERIOD    2
  ---------------------------------------------------------------------------

            1           2           3           4           5           6           7           8           9          10
 ........................................................................................................................
   1    10.00       9.999       9.995       9.982       9.933       9.770       9.286       8.018       5.195      8.1860E-03
   2    10.00       9.999       9.995       9.982       9.933       9.770       9.286       8.018       5.195      8.1860E-03
   3    10.00       9.999       9.995       9.982       9.933       9.770       9.286       8.018       5.195      8.1860E-03
   4    10.00       9.999       9.995       9.982       9.933       9.770       9.286       8.018       5.195      8.1860E-03
   5    10.00       9.999       9.995       9.982       9.933       9.770       9.286       8.018       5.195      8.1860E-03
   6    10.00       9.999       9.995       9.982       9.933       9.770       9.286       8.018       5.195      8.1860E-03
   7    10.00       9.999       9.995       9.982       9.933       9.770       9.286       8.018       5.195      8.1860E-03
   8    10.00       9.999       9.995       9.982       9.933       9.770       9.286       8.018       5.195      8.1860E-03
   9    10.00       9.999       9.995       9.982       9.933       9.770       9.286       8.018       5.195      8.1860E-03
  10    10.00       9.999       9.995       9.982       9.933       9.770       9.286       8.018       5.195      8.1860E-03
1
              HEAD IN LAYER   2 AT END OF TIME STEP  24 IN STRESS PERIOD    2
  ---------------------------------------------------------------------------

            1           2           3           4           5           6           7           8           9          10
 ........................................................................................................................
   1    10.00       9.999       9.995       9.979       9.925       9.748       9.236       7.927       5.080      1.4109E-02
   2    10.00       9.999       9.995       9.979       9.925       9.748       9.236       7.927       5.080      1.4109E-02
   3    10.00       9.999       9.995       9.979       9.925       9.748       9.236       7.927       5.080      1.4109E-02
   4    10.00       9.999       9.995       9.979       9.925       9.748       9.236       7.927       5.080      1.4109E-02
   5    10.00       9.999       9.995       9.979       9.925       9.748       9.236       7.927       5.080      1.4109E-02
   6    10.00       9.999       9.995       9.979       9.925       9.748       9.236       7.927       5.080      1.4109E-02
   7    10.00       9.999       9.995       9.979       9.925       9.748       9.236       7.927       5.080      1.4109E-02
   8    10.00       9.999       9.995       9.979       9.925       9.748       9.236       7.927       5.080      1.4109E-02
   9    10.00       9.999       9.995       9.979       9.925       9.748       9.236       7.927       5.080      1.4109E-02
  10    10.00       9.999       9.995       9.979       9.925       9.748       9.236       7.927       5.080      1.4109E-02
1
              HEAD IN LAYER   3 AT END OF TIME STEP  24 IN STRESS PERIOD    2
  ---------------------------------------------------------------------------

            1           2           3           4           5           6           7           8           9          10
 ........................................................................................................................
   1    10.00       9.999       9.994       9.977       9.919       9.734       9.201       7.861       4.990      1.4827E-02
   2    10.00       9.999       9.994       9.977       9.919       9.734       9.201       7.861       4.990      1.4827E-02
   3    10.00       9.999       9.994       9.977       9.919       9.734       9.201       7.861       4.990      1.4827E-02
   4    10.00       9.999       9.994       9.977       9.919       9.734       9.201       7.861       4.990      1.4827E-02
   5    10.00       9.999       9.994       9.977       9.919       9.734       9.201       7.861       4.990      1.4827E-02
   6    10.00       9.999       9.994       9.977       9.919       9.734       9.201       7.861       4.990      1.4827E-02
   7    10.00       9.999       9.994       9.977       9.919       9.734       9.201       7.861       4.990      1.4827E-02
   8    10.00       9.999       9.994       9.977       9.919       9.734       9.201       7.861       4.990      1.4827E-02
   9    10.00       9.999       9.994       9.977       9.919       9.734       9.201       7.861       4.990      1.4827E-02
  10    10.00       9.999       9.994       9.977       9.919       9.734       9.201       7.861       4.990      1.4827E-02
1
              HEAD IN LAYER   4 AT END OF TIME STEP  24 IN STRESS PERIOD    2
  ---------------------------------------------------------------------------

            1           2           3           4           5           6           7           8           9          10
 ........................................................................................................................
   1    10.00       9.999       9.994       9.976       9.916       9.726       9.184       7.829       4.946      1.4798E-02
   2    10.00       9.999       9.994       9.976       9.916       9.726       9.184       7.829       4.946      1.4798E-02
   3    10.00       9.999       9.994       9.976       9.916       9.726       9.184       7.829       4.946      1.4798E-02
   4    10.00       9.999       9.994       9.976       9.916       9.726       9.184       7.829       4.946      1.4798E-02
   5    10.00       9.999       9.994       9.976       9.916       9.726       9.184       7.829       4.946      1.4798E-02
   6    10.00       9.999       9.994       9.976       9.916       9.726       9.184       7.829       4.946      1.4798E-02
   7    10.00       9.999       9.994       9.976       9.916       9.726       9.184       7.829       4.946      1.4798E-02
   8    10.00       9.999       9.994       9.976       9.916       9.726       9.184       7.829       4.946      1.4798E-02
   9    10.00       9.999       9.994       9.976       9.916       9.726       9.184       7.829       4.946      1.4798E-02
  10    10.00       9.999       9.994       9.976       9.916       9.726       9.184       7.829       4.946      1.4798E-02

 HEAD WILL BE SAVED ON UNIT   51 AT END OF TIME STEP   24, STRESS PERIOD    2

 DRAWDOWN WILL BE SAVED ON UNIT   52 AT END OF TIME STEP   24, STRESS PERIOD    2
1
  VOLUMETRIC BUDGET FOR ENTIRE MODEL AT END OF TIME STEP   24, STRESS PERIOD   2
  ------------------------------------------------------------------------------

     CUMULATIVE VOLUMES      L**3       RATES FOR THIS TIME STEP      L**3/T
     ------------------                 ------------------------

           IN:                                      IN:
           ---                                      ---
             STORAGE =      186357.3906               STORAGE =        2595.2800
       CONSTANT HEAD =           0.0000         CONSTANT HEAD =           0.0000
               WELLS =           0.0000                 WELLS =           0.0000
     HEAD DEP BOUNDS =           4.2180       HEAD DEP BOUNDS =           0.7582

            TOTAL IN =      186361.6094              TOTAL IN =        2596.0381

          OUT:                                     OUT:
          ----                                     ----
             STORAGE =           0.0000               STORAGE =           0.0000
       CONSTANT HEAD =           0.0000         CONSTANT HEAD =           0.0000
               WELLS =           0.0000                 WELLS =           0.0000
     HEAD DEP BOUNDS =      186361.7656       HEAD DEP BOUNDS =        2596.0476

           TOTAL OUT =      186361.7656             TOTAL OUT =        2596.0476

            IN - OUT =          -0.1562              IN - OUT =      -9.5215E-03

 PERCENT DISCREPANCY =          -0.00     PERCENT DISCREPANCY =          -0.00






         TIME SUMMARY AT END OF TIME STEP   24 IN STRESS PERIOD    2
                    SECONDS     MINUTES      HOURS       DAYS        YEARS
                    -----------------------------------------------------------
   TIME STEP LENGTH  86400.      1440.0      24.000      1.0000     2.73785E-03
 STRESS PERIOD TIME 2.07360E+06  34560.      576.00      24.000     6.57084E-02
         TOTAL TIME 2.16000E+06  36000.      600.00      25.000     6.84463E-02
1
 
 SOLVING FOR HEAD 

 OUTPUT CONTROL FOR STRESS PERIOD    2   TIME STEP   25
    SAVE HEAD FOR ALL LAYERS
    SAVE DRAWDOWN FOR ALL LAYERS
    SAVE BUDGET
    PRINT HEAD FOR ALL LAYERS
    PRINT BUDGET
 UBDSV1 SAVING "         STORAGE" ON UNIT  53 AT TIME STEP 25, STRESS PERIOD   2
 UBDSV2 SAVING "   CONSTANT HEAD" ON UNIT  53 AT TIME STEP 25, STRESS PERIOD   2
 UBDSV1 SAVING "FLOW RIGHT FACE " ON UNIT  53 AT TIME STEP 25, STRESS PERIOD   2
 UBDSV1 SAVING "FLOW FRONT FACE " ON UNIT  53 AT TIME STEP 25, STRESS PERIOD   2
 UBDSV1 SAVING "FLOW LOWER FACE " ON UNIT  53 AT TIME STEP 25, STRESS PERIOD   2
1
              HEAD IN LAYER   1 AT END OF TIME STEP  25 IN STRESS PERIOD    2
  ---------------------------------------------------------------------------

            1           2           3           4           5           6           7           8           9          10
 ........................................................................................................................
   1    10.00       9.999       9.995       9.979       9.925       9.750       9.241       7.940       5.105      8.0276E-03
   2    10.00       9.999       9.995       9.979       9.925       9.750       9.241       7.940       5.105      8.0276E-03
   3    10.00       9.999       9.995       9.979       9.925       9.750       9.241       7.940       5.105      8.0276E-03
   4    10.00       9.999       9.995       9.979       9.925       9.750       9.241       7.940       5.105      8.0276E-03
   5    10.00       9.999       9.995       9.979       9.925       9.750       9.241       7.940       5.105      8.0276E-03
   6    10.00       9.999       9.995       9.979       9.925       9.750       9.241       7.940       5.105      8.0276E-03
   7    10.00       9.999       9.995       9.979       9.925       9.750       9.241       7.940       5.105      8.0276E-03
   8    10.00       9.999       9.995       9.979       9.925       9.750       9.241       7.940       5.105      8.0276E-03
   9    10.00       9.999       9.995       9.979       9.925       9.750       9.241       7.940       5.105      8.0276E-03
  10    10.00       9.999       9.995       9.979       9.925       9.750       9.241       7.940       5.105      8.0276E-03
1
              HEAD IN LAYER   2 AT END OF TIME STEP  25 IN STRESS PERIOD    2
  ---------------------------------------------------------------------------

            1           2           3           4           5           6           7           8           9          10
 ........................................................................................................................
   1    10.00       9.999       9.994       9.976       9.917       9.728       9.191       7.850       4.995      1.3871E-02
   2    10.00       9.999       9.994       9.976       9.917       9.728       9.191       7.850       4.995      1.3871E-02
   3    10.00       9.999       9.994       9.976       9.917       9.728       9.191       7.850       4.995      1.3871E-02
   4    10.00       9.999       9.994       9.976       9.917       9.728       9.191       7.850       4.995      1.3871E-02
   5    10.00       9.999       9.994       9.976       9.917       9.728       9.191       7.850       4.995      1.3871E-02
   6    10.00       9.999       9.994       9.976       9.917       9.728       9.191       7.850       4.995      1.3871E-02
   7    10.00       9.999       9.994       9.976       9.917       9.728       9.191       7.850       4.995      1.3871E-02
   8    10.00       9.999       9.994       9.976       9.917       9.728       9.191       7.850       4.995      1.3871E-02
   9    10.00       9.999       9.994       9.976       9.917       9.728       9.191       7.850       4.995      1.3871E-02
  10    10.00       9.999       9.994       9.976       9.917       9.728       9.191       7.850       4.995      1.3871E-02
1
              HEAD IN LAYER   3 AT END OF TIME STEP  25 IN STRESS PERIOD    2
  ---------------------------------------------------------------------------

            1           2           3           4           5           6           7           8           9          10
 ........................................................................................................................
   1    10.00       9.998       9.993       9.974       9.911       9.713       9.156       7.785       4.909      1.4585E-02
   2    10.00       9.998       9.993       9.974       9.911       9.713       9.156       7.785       4.909      1.4585E-02
   3    10.00       9.998       9.993       9.974       9.911       9.713       9.156       7.785       4.909      1.4585E-02
   4    10.00       9.998       9.993       9.974       9.911       9.713       9.156       7.785       4.909      1.4585E-02
   5    10.00       9.998       9.993       9.974       9.911       9.713       9.156       7.785       4.909      1.4585E-02
   6    10.00       9.998       9.993       9.974       9.911       9.713       9.156       7.785       4.909      1.4585E-02
   7    10.00       9.998       9.993       9.974       9.911       9.713       9.156       7.785       4.909      1.4585E-02
   8    10.00       9.998       9.993       9.974       9.911       9.713       9.156       7.785       4.909      1.4585E-02
   9    10.00       9.998       9.993       9.974       9.911       9.713       9.156       7.785       4.909      1.4585E-02
  10    10.00       9.998       9.993       9.974       9.911       9.713       9.156       7.785       4.909      1.4585E-02
1
              HEAD IN LAYER   4 AT END OF TIME STEP  25 IN STRESS PERIOD    2
  ---------------------------------------------------------------------------

            1           2           3           4           5           6           7           8           9          10
 ........................................................................................................................
   1    10.00       9.998       9.993       9.973       9.908       9.705       9.139       7.753       4.867      1.4560E-02
   2    10.00       9.998       9.993       9.973       9.908       9.705       9.139       7.753       4.867      1.4560E-02
   3    10.00       9.998       9.993       9.973       9.908       9.705       9.139       7.753       4.867      1.4560E-02
   4    10.00       9.998       9.993       9.973       9.908       9.705       9.139       7.753       4.867      1.4560E-02
   5    10.00       9.998       9.993       9.973       9.908       9.705       9.139       7.753       4.867      1.4560E-02
   6    10.00       9.998       9.993       9.973       9.908       9.705       9.139       7.753       4.867      1.4560E-02
   7    10.00       9.998       9.993       9.973       9.908       9.705       9.139       7.753       4.867      1.4560E-02
   8    10.00       9.998       9.993       9.973       9.908       9.705       9.139       7.753       4.867      1.4560E-02
   9    10.00       9.998       9.993       9.973       9.908       9.705       9.139       7.753       4.867      1.4560E-02
  10    10.00       9.998       9.993       9.973       9.908       9.705       9.139       7.753       4.867      1.4560E-02

 HEAD WILL BE SAVED ON UNIT   51 AT END OF TIME STEP   25, STRESS PERIOD    2

 DRAWDOWN WILL BE SAVED ON UNIT   52 AT END OF TIME STEP   25, STRESS PERIOD    2
1
  VOLUMETRIC BUDGET FOR ENTIRE MODEL AT END OF TIME STEP   25, STRESS PERIOD   2
  ------------------------------------------------------------------------------

     CUMULATIVE VOLUMES      L**3       RATES FOR THIS TIME STEP      L**3/T
     ------------------                 ------------------------

           IN:                                      IN:
           ---                                      ---
             STORAGE =      188908.7031               STORAGE =        2551.3167
       CONSTANT HEAD =           0.0000         CONSTANT HEAD =           0.0000
               WELLS =           0.0000                 WELLS =           0.0000
     HEAD DEP BOUNDS =           5.1040       HEAD DEP BOUNDS =           0.8860

            TOTAL IN =      188913.8125              TOTAL IN =        2552.2026

          OUT:                                     OUT:
          ----                                     ----
             STORAGE =           0.0000               STORAGE =           0.0000
       CONSTANT HEAD =           0.0000         CONSTANT HEAD =           0.0000
               WELLS =           0.0000                 WELLS =           0.0000
     HEAD DEP BOUNDS =      188913.9844       HEAD DEP BOUNDS =        2552.2244

           TOTAL OUT =      188913.9844             TOTAL OUT =        2552.2244

            IN - OUT =          -0.1719              IN - OUT =      -2.1729E-02

 PERCENT DISCREPANCY =          -0.00     PERCENT DISCREPANCY =          -0.00






         TIME SUMMARY AT END OF TIME STEP   25 IN STRESS PERIOD    2
                    SECONDS     MINUTES      HOURS       DAYS        YEARS
                    -----------------------------------------------------------
   TIME STEP LENGTH  86400.      1440.0      24.000      1.0000     2.73785E-03
 STRESS PERIOD TIME 2.16000E+06  36000.      600.00      25.000     6.84463E-02
         TOTAL TIME 2.24640E+06  37440.      624.00      26.000     7.11841E-02
1
 
 SOLVING FOR HEAD 

 OUTPUT CONTROL FOR STRESS PERIOD    2   TIME STEP   26
    SAVE HEAD FOR ALL LAYERS
    SAVE DRAWDOWN FOR ALL LAYERS
    SAVE BUDGET
    PRINT HEAD FOR ALL LAYERS
    PRINT BUDGET
 UBDSV1 SAVING "         STORAGE" ON UNIT  53 AT TIME STEP 26, STRESS PERIOD   2
 UBDSV2 SAVING "   CONSTANT HEAD" ON UNIT  53 AT TIME STEP 26, STRESS PERIOD   2
 UBDSV1 SAVING "FLOW RIGHT FACE " ON UNIT  53 AT TIME STEP 26, STRESS PERIOD   2
 UBDSV1 SAVING "FLOW FRONT FACE " ON UNIT  53 AT TIME STEP 26, STRESS PERIOD   2
 UBDSV1 SAVING "FLOW LOWER FACE " ON UNIT  53 AT TIME STEP 26, STRESS PERIOD   2
1
              HEAD IN LAYER   1 AT END OF TIME STEP  26 IN STRESS PERIOD    2
  ---------------------------------------------------------------------------

            1           2           3           4           5           6           7           8           9          10
 ........................................................................................................................
   1    10.00       9.999       9.994       9.977       9.917       9.730       9.196       7.862       5.020      7.8768E-03
   2    10.00       9.999       9.994       9.977       9.917       9.730       9.196       7.862       5.020      7.8768E-03
   3    10.00       9.999       9.994       9.977       9.917       9.730       9.196       7.862       5.020      7.8768E-03
   4    10.00       9.999       9.994       9.977       9.917       9.730       9.196       7.862       5.020      7.8768E-03
   5    10.00       9.999       9.994       9.977       9.917       9.730       9.196       7.862       5.020      7.8768E-03
   6    10.00       9.999       9.994       9.977       9.917       9.730       9.196       7.862       5.020      7.8768E-03
   7    10.00       9.999       9.994       9.977       9.917       9.730       9.196       7.862       5.020      7.8768E-03
   8    10.00       9.999       9.994       9.977       9.917       9.730       9.196       7.862       5.020      7.8768E-03
   9    10.00       9.999       9.994       9.977       9.917       9.730       9.196       7.862       5.020      7.8768E-03
  10    10.00       9.999       9.994       9.977       9.917       9.730       9.196       7.862       5.020      7.8768E-03
1
              HEAD IN LAYER   2 AT END OF TIME STEP  26 IN STRESS PERIOD    2
  ---------------------------------------------------------------------------

            1           2           3           4           5           6           7           8           9          10
 ........................................................................................................................
   1    10.00       9.998       9.993       9.974       9.908       9.707       9.145       7.774       4.914      1.3643E-02
   2    10.00       9.998       9.993       9.974       9.908       9.707       9.145       7.774       4.914      1.3643E-02
   3    10.00       9.998       9.993       9.974       9.908       9.707       9.145       7.774       4.914      1.3643E-02
   4    10.00       9.998       9.993       9.974       9.908       9.707       9.145       7.774       4.914      1.3643E-02
   5    10.00       9.998       9.993       9.974       9.908       9.707       9.145       7.774       4.914      1.3643E-02
   6    10.00       9.998       9.993       9.974       9.908       9.707       9.145       7.774       4.914      1.3643E-02
   7    10.00       9.998       9.993       9.974       9.908       9.707       9.145       7.774       4.914      1.3643E-02
   8    10.00       9.998       9.993       9.974       9.908       9.707       9.145       7.774       4.914      1.3643E-02
   9    10.00       9.998       9.993       9.974       9.908       9.707       9.145       7.774       4.914      1.3643E-02
  10    10.00       9.998       9.993       9.974       9.908       9.707       9.145       7.774       4.914      1.3643E-02
1
              HEAD IN LAYER   3 AT END OF TIME STEP  26 IN STRESS PERIOD    2
  ---------------------------------------------------------------------------

            1           2           3           4           5           6           7           8           9          10
 ........................................................................................................................
   1    10.00       9.998       9.992       9.971       9.902       9.691       9.111       7.711       4.831      1.4354E-02
   2    10.00       9.998       9.992       9.971       9.902       9.691       9.111       7.711       4.831      1.4354E-02
   3    10.00       9.998       9.992       9.971       9.902       9.691       9.111       7.711       4.831      1.4354E-02
   4    10.00       9.998       9.992       9.971       9.902       9.691       9.111       7.711       4.831      1.4354E-02
   5    10.00       9.998       9.992       9.971       9.902       9.691       9.111       7.711       4.831      1.4354E-02
   6    10.00       9.998       9.992       9.971       9.902       9.691       9.111       7.711       4.831      1.4354E-02
   7    10.00       9.998       9.992       9.971       9.902       9.691       9.111       7.711       4.831      1.4354E-02
   8    10.00       9.998       9.992       9.971       9.902       9.691       9.111       7.711       4.831      1.4354E-02
   9    10.00       9.998       9.992       9.971       9.902       9.691       9.111       7.711       4.831      1.4354E-02
  10    10.00       9.998       9.992       9.971       9.902       9.691       9.111       7.711       4.831      1.4354E-02
1
              HEAD IN LAYER   4 AT END OF TIME STEP  26 IN STRESS PERIOD    2
  ---------------------------------------------------------------------------

            1           2           3           4           5           6           7           8           9          10
 ........................................................................................................................
   1    10.00       9.998       9.992       9.970       9.899       9.683       9.093       7.679       4.791      1.4332E-02
   2    10.00       9.998       9.992       9.970       9.899       9.683       9.093       7.679       4.791      1.4332E-02
   3    10.00       9.998       9.992       9.970       9.899       9.683       9.093       7.679       4.791      1.4332E-02
   4    10.00       9.998       9.992       9.970       9.899       9.683       9.093       7.679       4.791      1.4332E-02
   5    10.00       9.998       9.992       9.970       9.899       9.683       9.093       7.679       4.791      1.4332E-02
   6    10.00       9.998       9.992       9.970       9.899       9.683       9.093       7.679       4.791      1.4332E-02
   7    10.00       9.998       9.992       9.970       9.899       9.683       9.093       7.679       4.791      1.4332E-02
   8    10.00       9.998       9.992       9.970       9.899       9.683       9.093       7.679       4.791      1.4332E-02
   9    10.00       9.998       9.992       9.970       9.899       9.683       9.093       7.679       4.791      1.4332E-02
  10    10.00       9.998       9.992       9.970       9.899       9.683       9.093       7.679       4.791      1.4332E-02

 HEAD WILL BE SAVED ON UNIT   51 AT END OF TIME STEP   26, STRESS PERIOD    2

 DRAWDOWN WILL BE SAVED ON UNIT   52 AT END OF TIME STEP   26, STRESS PERIOD    2
1
  VOLUMETRIC BUDGET FOR ENTIRE MODEL AT END OF TIME STEP   26, STRESS PERIOD   2
  ------------------------------------------------------------------------------

     CUMULATIVE VOLUMES      L**3       RATES FOR THIS TIME STEP      L**3/T
     ------------------                 ------------------------

           IN:                                      IN:
           ---                                      ---
             STORAGE =      191417.9844               STORAGE =        2509.2783
       CONSTANT HEAD =           0.0000         CONSTANT HEAD =           0.0000
               WELLS =           0.0000                 WELLS =           0.0000
     HEAD DEP BOUNDS =           6.1325       HEAD DEP BOUNDS =           1.0285

            TOTAL IN =      191424.1094              TOTAL IN =        2510.3069

          OUT:                                     OUT:
          ----                                     ----
             STORAGE =           0.0000               STORAGE =           0.0000
       CONSTANT HEAD =           0.0000         CONSTANT HEAD =           0.0000
               WELLS =           0.0000                 WELLS =           0.0000
     HEAD DEP BOUNDS =      191424.3125       HEAD DEP BOUNDS =        2510.3218

           TOTAL OUT =      191424.3125             TOTAL OUT =        2510.3218

            IN - OUT =          -0.2031              IN - OUT =      -1.4893E-02

 PERCENT DISCREPANCY =          -0.00     PERCENT DISCREPANCY =          -0.00






         TIME SUMMARY AT END OF TIME STEP   26 IN STRESS PERIOD    2
                    SECONDS     MINUTES      HOURS       DAYS        YEARS
                    -----------------------------------------------------------
   TIME STEP LENGTH  86400.      1440.0      24.000      1.0000     2.73785E-03
 STRESS PERIOD TIME 2.24640E+06  37440.      624.00      26.000     7.11841E-02
         TOTAL TIME 2.33280E+06  38880.      648.00      27.000     7.39220E-02
1
 
 SOLVING FOR HEAD 

 OUTPUT CONTROL FOR STRESS PERIOD    2   TIME STEP   27
    SAVE HEAD FOR ALL LAYERS
    SAVE DRAWDOWN FOR ALL LAYERS
    SAVE BUDGET
    PRINT HEAD FOR ALL LAYERS
    PRINT BUDGET
 UBDSV1 SAVING "         STORAGE" ON UNIT  53 AT TIME STEP 27, STRESS PERIOD   2
 UBDSV2 SAVING "   CONSTANT HEAD" ON UNIT  53 AT TIME STEP 27, STRESS PERIOD   2
 UBDSV1 SAVING "FLOW RIGHT FACE " ON UNIT  53 AT TIME STEP 27, STRESS PERIOD   2
 UBDSV1 SAVING "FLOW FRONT FACE " ON UNIT  53 AT TIME STEP 27, STRESS PERIOD   2
 UBDSV1 SAVING "FLOW LOWER FACE " ON UNIT  53 AT TIME STEP 27, STRESS PERIOD   2
1
              HEAD IN LAYER   1 AT END OF TIME STEP  27 IN STRESS PERIOD    2
  ---------------------------------------------------------------------------

            1           2           3           4           5           6           7           8           9          10
 ........................................................................................................................
   1    10.00       9.998       9.993       9.974       9.909       9.709       9.151       7.787       4.937      7.7327E-03
   2    10.00       9.998       9.993       9.974       9.909       9.709       9.151       7.787       4.937      7.7327E-03
   3    10.00       9.998       9.993       9.974       9.909       9.709       9.151       7.787       4.937      7.7327E-03
   4    10.00       9.998       9.993       9.974       9.909       9.709       9.151       7.787       4.937      7.7327E-03
   5    10.00       9.998       9.993       9.974       9.909       9.709       9.151       7.787       4.937      7.7327E-03
   6    10.00       9.998       9.993       9.974       9.909       9.709       9.151       7.787       4.937      7.7327E-03
   7    10.00       9.998       9.993       9.974       9.909       9.709       9.151       7.787       4.937      7.7327E-03
   8    10.00       9.998       9.993       9.974       9.909       9.709       9.151       7.787       4.937      7.7327E-03
   9    10.00       9.998       9.993       9.974       9.909       9.709       9.151       7.787       4.937      7.7327E-03
  10    10.00       9.998       9.993       9.974       9.909       9.709       9.151       7.787       4.937      7.7327E-03
1
              HEAD IN LAYER   2 AT END OF TIME STEP  27 IN STRESS PERIOD    2
  ---------------------------------------------------------------------------

            1           2           3           4           5           6           7           8           9          10
 ........................................................................................................................
   1    10.00       9.998       9.992       9.970       9.900       9.685       9.100       7.700       4.836      1.3425E-02
   2    10.00       9.998       9.992       9.970       9.900       9.685       9.100       7.700       4.836      1.3425E-02
   3    10.00       9.998       9.992       9.970       9.900       9.685       9.100       7.700       4.836      1.3425E-02
   4    10.00       9.998       9.992       9.970       9.900       9.685       9.100       7.700       4.836      1.3425E-02
   5    10.00       9.998       9.992       9.970       9.900       9.685       9.100       7.700       4.836      1.3425E-02
   6    10.00       9.998       9.992       9.970       9.900       9.685       9.100       7.700       4.836      1.3425E-02
   7    10.00       9.998       9.992       9.970       9.900       9.685       9.100       7.700       4.836      1.3425E-02
   8    10.00       9.998       9.992       9.970       9.900       9.685       9.100       7.700       4.836      1.3425E-02
   9    10.00       9.998       9.992       9.970       9.900       9.685       9.100       7.700       4.836      1.3425E-02
  10    10.00       9.998       9.992       9.970       9.900       9.685       9.100       7.700       4.836      1.3425E-02
1
              HEAD IN LAYER   3 AT END OF TIME STEP  27 IN STRESS PERIOD    2
  ---------------------------------------------------------------------------

            1           2           3           4           5           6           7           8           9          10
 ........................................................................................................................
   1    10.00       9.998       9.991       9.968       9.893       9.669       9.065       7.638       4.757      1.4132E-02
   2    10.00       9.998       9.991       9.968       9.893       9.669       9.065       7.638       4.757      1.4132E-02
   3    10.00       9.998       9.991       9.968       9.893       9.669       9.065       7.638       4.757      1.4132E-02
   4    10.00       9.998       9.991       9.968       9.893       9.669       9.065       7.638       4.757      1.4132E-02
   5    10.00       9.998       9.991       9.968       9.893       9.669       9.065       7.638       4.757      1.4132E-02
   6    10.00       9.998       9.991       9.968       9.893       9.669       9.065       7.638       4.757      1.4132E-02
   7    10.00       9.998       9.991       9.968       9.893       9.669       9.065       7.638       4.757      1.4132E-02
   8    10.00       9.998       9.991       9.968       9.893       9.669       9.065       7.638       4.757      1.4132E-02
   9    10.00       9.998       9.991       9.968       9.893       9.669       9.065       7.638       4.757      1.4132E-02
  10    10.00       9.998       9.991       9.968       9.893       9.669       9.065       7.638       4.757      1.4132E-02
1
              HEAD IN LAYER   4 AT END OF TIME STEP  27 IN STRESS PERIOD    2
  ---------------------------------------------------------------------------

            1           2           3           4           5           6           7           8           9          10
 ........................................................................................................................
   1    10.00       9.998       9.991       9.967       9.890       9.661       9.047       7.607       4.718      1.4114E-02
   2    10.00       9.998       9.991       9.967       9.890       9.661       9.047       7.607       4.718      1.4114E-02
   3    10.00       9.998       9.991       9.967       9.890       9.661       9.047       7.607       4.718      1.4114E-02
   4    10.00       9.998       9.991       9.967       9.890       9.661       9.047       7.607       4.718      1.4114E-02
   5    10.00       9.998       9.991       9.967       9.890       9.661       9.047       7.607       4.718      1.4114E-02
   6    10.00       9.998       9.991       9.967       9.890       9.661       9.047       7.607       4.718      1.4114E-02
   7    10.00       9.998       9.991       9.967       9.890       9.661       9.047       7.607       4.718      1.4114E-02
   8    10.00       9.998       9.991       9.967       9.890       9.661       9.047       7.607       4.718      1.4114E-02
   9    10.00       9.998       9.991       9.967       9.890       9.661       9.047       7.607       4.718      1.4114E-02
  10    10.00       9.998       9.991       9.967       9.890       9.661       9.047       7.607       4.718      1.4114E-02

 HEAD WILL BE SAVED ON UNIT   51 AT END OF TIME STEP   27, STRESS PERIOD    2

 DRAWDOWN WILL BE SAVED ON UNIT   52 AT END OF TIME STEP   27, STRESS PERIOD    2
1
  VOLUMETRIC BUDGET FOR ENTIRE MODEL AT END OF TIME STEP   27, STRESS PERIOD   2
  ------------------------------------------------------------------------------

     CUMULATIVE VOLUMES      L**3       RATES FOR THIS TIME STEP      L**3/T
     ------------------                 ------------------------

           IN:                                      IN:
           ---                                      ---
             STORAGE =      193886.9844               STORAGE =        2468.9990
       CONSTANT HEAD =           0.0000         CONSTANT HEAD =           0.0000
               WELLS =           0.0000                 WELLS =           0.0000
     HEAD DEP BOUNDS =           7.3199       HEAD DEP BOUNDS =           1.1873

            TOTAL IN =      193894.2969              TOTAL IN =        2470.1863

          OUT:                                     OUT:
          ----                                     ----
             STORAGE =           0.0000               STORAGE =           0.0000
       CONSTANT HEAD =           0.0000         CONSTANT HEAD =           0.0000
               WELLS =           0.0000                 WELLS =           0.0000
     HEAD DEP BOUNDS =      193894.5156       HEAD DEP BOUNDS =        2470.2041

           TOTAL OUT =      193894.5156             TOTAL OUT =        2470.2041

            IN - OUT =          -0.2188              IN - OUT =      -1.7822E-02

 PERCENT DISCREPANCY =          -0.00     PERCENT DISCREPANCY =          -0.00






         TIME SUMMARY AT END OF TIME STEP   27 IN STRESS PERIOD    2
                    SECONDS     MINUTES      HOURS       DAYS        YEARS
                    -----------------------------------------------------------
   TIME STEP LENGTH  86400.      1440.0      24.000      1.0000     2.73785E-03
 STRESS PERIOD TIME 2.33280E+06  38880.      648.00      27.000     7.39220E-02
         TOTAL TIME 2.41920E+06  40320.      672.00      28.000     7.66598E-02
1
 
 SOLVING FOR HEAD 

 OUTPUT CONTROL FOR STRESS PERIOD    2   TIME STEP   28
    SAVE HEAD FOR ALL LAYERS
    SAVE DRAWDOWN FOR ALL LAYERS
    SAVE BUDGET
    PRINT HEAD FOR ALL LAYERS
    PRINT BUDGET
 UBDSV1 SAVING "         STORAGE" ON UNIT  53 AT TIME STEP 28, STRESS PERIOD   2
 UBDSV2 SAVING "   CONSTANT HEAD" ON UNIT  53 AT TIME STEP 28, STRESS PERIOD   2
 UBDSV1 SAVING "FLOW RIGHT FACE " ON UNIT  53 AT TIME STEP 28, STRESS PERIOD   2
 UBDSV1 SAVING "FLOW FRONT FACE " ON UNIT  53 AT TIME STEP 28, STRESS PERIOD   2
 UBDSV1 SAVING "FLOW LOWER FACE " ON UNIT  53 AT TIME STEP 28, STRESS PERIOD   2
1
              HEAD IN LAYER   1 AT END OF TIME STEP  28 IN STRESS PERIOD    2
  ---------------------------------------------------------------------------

            1           2           3           4           5           6           7           8           9          10
 ........................................................................................................................
   1    10.00       9.998       9.992       9.971       9.900       9.687       9.106       7.712       4.859      7.5954E-03
   2    10.00       9.998       9.992       9.971       9.900       9.687       9.106       7.712       4.859      7.5954E-03
   3    10.00       9.998       9.992       9.971       9.900       9.687       9.106       7.712       4.859      7.5954E-03
   4    10.00       9.998       9.992       9.971       9.900       9.687       9.106       7.712       4.859      7.5954E-03
   5    10.00       9.998       9.992       9.971       9.900       9.687       9.106       7.712       4.859      7.5954E-03
   6    10.00       9.998       9.992       9.971       9.900       9.687       9.106       7.712       4.859      7.5954E-03
   7    10.00       9.998       9.992       9.971       9.900       9.687       9.106       7.712       4.859      7.5954E-03
   8    10.00       9.998       9.992       9.971       9.900       9.687       9.106       7.712       4.859      7.5954E-03
   9    10.00       9.998       9.992       9.971       9.900       9.687       9.106       7.712       4.859      7.5954E-03
  10    10.00       9.998       9.992       9.971       9.900       9.687       9.106       7.712       4.859      7.5954E-03
1
              HEAD IN LAYER   2 AT END OF TIME STEP  28 IN STRESS PERIOD    2
  ---------------------------------------------------------------------------

            1           2           3           4           5           6           7           8           9          10
 ........................................................................................................................
   1    10.00       9.998       9.991       9.967       9.890       9.663       9.055       7.628       4.762      1.3217E-02
   2    10.00       9.998       9.991       9.967       9.890       9.663       9.055       7.628       4.762      1.3217E-02
   3    10.00       9.998       9.991       9.967       9.890       9.663       9.055       7.628       4.762      1.3217E-02
   4    10.00       9.998       9.991       9.967       9.890       9.663       9.055       7.628       4.762      1.3217E-02
   5    10.00       9.998       9.991       9.967       9.890       9.663       9.055       7.628       4.762      1.3217E-02
   6    10.00       9.998       9.991       9.967       9.890       9.663       9.055       7.628       4.762      1.3217E-02
   7    10.00       9.998       9.991       9.967       9.890       9.663       9.055       7.628       4.762      1.3217E-02
   8    10.00       9.998       9.991       9.967       9.890       9.663       9.055       7.628       4.762      1.3217E-02
   9    10.00       9.998       9.991       9.967       9.890       9.663       9.055       7.628       4.762      1.3217E-02
  10    10.00       9.998       9.991       9.967       9.890       9.663       9.055       7.628       4.762      1.3217E-02
1
              HEAD IN LAYER   3 AT END OF TIME STEP  28 IN STRESS PERIOD    2
  ---------------------------------------------------------------------------

            1           2           3           4           5           6           7           8           9          10
 ........................................................................................................................
   1    10.00       9.997       9.990       9.965       9.884       9.646       9.019       7.567       4.685      1.3920E-02
   2    10.00       9.997       9.990       9.965       9.884       9.646       9.019       7.567       4.685      1.3920E-02
   3    10.00       9.997       9.990       9.965       9.884       9.646       9.019       7.567       4.685      1.3920E-02
   4    10.00       9.997       9.990       9.965       9.884       9.646       9.019       7.567       4.685      1.3920E-02
   5    10.00       9.997       9.990       9.965       9.884       9.646       9.019       7.567       4.685      1.3920E-02
   6    10.00       9.997       9.990       9.965       9.884       9.646       9.019       7.567       4.685      1.3920E-02
   7    10.00       9.997       9.990       9.965       9.884       9.646       9.019       7.567       4.685      1.3920E-02
   8    10.00       9.997       9.990       9.965       9.884       9.646       9.019       7.567       4.685      1.3920E-02
   9    10.00       9.997       9.990       9.965       9.884       9.646       9.019       7.567       4.685      1.3920E-02
  10    10.00       9.997       9.990       9.965       9.884       9.646       9.019       7.567       4.685      1.3920E-02
1
              HEAD IN LAYER   4 AT END OF TIME STEP  28 IN STRESS PERIOD    2
  ---------------------------------------------------------------------------

            1           2           3           4           5           6           7           8           9          10
 ........................................................................................................................
   1    10.00       9.997       9.990       9.964       9.880       9.638       9.002       7.536       4.648      1.3904E-02
   2    10.00       9.997       9.990       9.964       9.880       9.638       9.002       7.536       4.648      1.3904E-02
   3    10.00       9.997       9.990       9.964       9.880       9.638       9.002       7.536       4.648      1.3904E-02
   4    10.00       9.997       9.990       9.964       9.880       9.638       9.002       7.536       4.648      1.3904E-02
   5    10.00       9.997       9.990       9.964       9.880       9.638       9.002       7.536       4.648      1.3904E-02
   6    10.00       9.997       9.990       9.964       9.880       9.638       9.002       7.536       4.648      1.3904E-02
   7    10.00       9.997       9.990       9.964       9.880       9.638       9.002       7.536       4.648      1.3904E-02
   8    10.00       9.997       9.990       9.964       9.880       9.638       9.002       7.536       4.648      1.3904E-02
   9    10.00       9.997       9.990       9.964       9.880       9.638       9.002       7.536       4.648      1.3904E-02
  10    10.00       9.997       9.990       9.964       9.880       9.638       9.002       7.536       4.648      1.3904E-02

 HEAD WILL BE SAVED ON UNIT   51 AT END OF TIME STEP   28, STRESS PERIOD    2

 DRAWDOWN WILL BE SAVED ON UNIT   52 AT END OF TIME STEP   28, STRESS PERIOD    2
1
  VOLUMETRIC BUDGET FOR ENTIRE MODEL AT END OF TIME STEP   28, STRESS PERIOD   2
  ------------------------------------------------------------------------------

     CUMULATIVE VOLUMES      L**3       RATES FOR THIS TIME STEP      L**3/T
     ------------------                 ------------------------

           IN:                                      IN:
           ---                                      ---
             STORAGE =      196317.3750               STORAGE =        2430.3955
       CONSTANT HEAD =           0.0000         CONSTANT HEAD =           0.0000
               WELLS =           0.0000                 WELLS =           0.0000
     HEAD DEP BOUNDS =           8.6829       HEAD DEP BOUNDS =           1.3630

            TOTAL IN =      196326.0625              TOTAL IN =        2431.7585

          OUT:                                     OUT:
          ----                                     ----
             STORAGE =           0.0000               STORAGE =           0.0000
       CONSTANT HEAD =           0.0000         CONSTANT HEAD =           0.0000
               WELLS =           0.0000                 WELLS =           0.0000
     HEAD DEP BOUNDS =      196326.2969       HEAD DEP BOUNDS =        2431.7874

           TOTAL OUT =      196326.2969             TOTAL OUT =        2431.7874

            IN - OUT =          -0.2344              IN - OUT =      -2.8809E-02

 PERCENT DISCREPANCY =          -0.00     PERCENT DISCREPANCY =          -0.00






         TIME SUMMARY AT END OF TIME STEP   28 IN STRESS PERIOD    2
                    SECONDS     MINUTES      HOURS       DAYS        YEARS
                    -----------------------------------------------------------
   TIME STEP LENGTH  86400.      1440.0      24.000      1.0000     2.73785E-03
 STRESS PERIOD TIME 2.41920E+06  40320.      672.00      28.000     7.66598E-02
         TOTAL TIME 2.50560E+06  41760.      696.00      29.000     7.93977E-02
1
 
 SOLVING FOR HEAD 

 OUTPUT CONTROL FOR STRESS PERIOD    2   TIME STEP   29
    SAVE HEAD FOR ALL LAYERS
    SAVE DRAWDOWN FOR ALL LAYERS
    SAVE BUDGET
    PRINT HEAD FOR ALL LAYERS
    PRINT BUDGET
 UBDSV1 SAVING "         STORAGE" ON UNIT  53 AT TIME STEP 29, STRESS PERIOD   2
 UBDSV2 SAVING "   CONSTANT HEAD" ON UNIT  53 AT TIME STEP 29, STRESS PERIOD   2
 UBDSV1 SAVING "FLOW RIGHT FACE " ON UNIT  53 AT TIME STEP 29, STRESS PERIOD   2
 UBDSV1 SAVING "FLOW FRONT FACE " ON UNIT  53 AT TIME STEP 29, STRESS PERIOD   2
 UBDSV1 SAVING "FLOW LOWER FACE " ON UNIT  53 AT TIME STEP 29, STRESS PERIOD   2
1
              HEAD IN LAYER   1 AT END OF TIME STEP  29 IN STRESS PERIOD    2
  ---------------------------------------------------------------------------

            1           2           3           4           5           6           7           8           9          10
 ........................................................................................................................
   1    10.00       9.998       9.991       9.967       9.891       9.665       9.060       7.640       4.784      7.4640E-03
   2    10.00       9.998       9.991       9.967       9.891       9.665       9.060       7.640       4.784      7.4640E-03
   3    10.00       9.998       9.991       9.967       9.891       9.665       9.060       7.640       4.784      7.4640E-03
   4    10.00       9.998       9.991       9.967       9.891       9.665       9.060       7.640       4.784      7.4640E-03
   5    10.00       9.998       9.991       9.967       9.891       9.665       9.060       7.640       4.784      7.4640E-03
   6    10.00       9.998       9.991       9.967       9.891       9.665       9.060       7.640       4.784      7.4640E-03
   7    10.00       9.998       9.991       9.967       9.891       9.665       9.060       7.640       4.784      7.4640E-03
   8    10.00       9.998       9.991       9.967       9.891       9.665       9.060       7.640       4.784      7.4640E-03
   9    10.00       9.998       9.991       9.967       9.891       9.665       9.060       7.640       4.784      7.4640E-03
  10    10.00       9.998       9.991       9.967       9.891       9.665       9.060       7.640       4.784      7.4640E-03
1
              HEAD IN LAYER   2 AT END OF TIME STEP  29 IN STRESS PERIOD    2
  ---------------------------------------------------------------------------

            1           2           3           4           5           6           7           8           9          10
 ........................................................................................................................
   1    10.00       9.997       9.990       9.964       9.881       9.640       9.009       7.557       4.691      1.3016E-02
   2    10.00       9.997       9.990       9.964       9.881       9.640       9.009       7.557       4.691      1.3016E-02
   3    10.00       9.997       9.990       9.964       9.881       9.640       9.009       7.557       4.691      1.3016E-02
   4    10.00       9.997       9.990       9.964       9.881       9.640       9.009       7.557       4.691      1.3016E-02
   5    10.00       9.997       9.990       9.964       9.881       9.640       9.009       7.557       4.691      1.3016E-02
   6    10.00       9.997       9.990       9.964       9.881       9.640       9.009       7.557       4.691      1.3016E-02
   7    10.00       9.997       9.990       9.964       9.881       9.640       9.009       7.557       4.691      1.3016E-02
   8    10.00       9.997       9.990       9.964       9.881       9.640       9.009       7.557       4.691      1.3016E-02
   9    10.00       9.997       9.990       9.964       9.881       9.640       9.009       7.557       4.691      1.3016E-02
  10    10.00       9.997       9.990       9.964       9.881       9.640       9.009       7.557       4.691      1.3016E-02
1
              HEAD IN LAYER   3 AT END OF TIME STEP  29 IN STRESS PERIOD    2
  ---------------------------------------------------------------------------

            1           2           3           4           5           6           7           8           9          10
 ........................................................................................................................
   1    10.00       9.997       9.989       9.961       9.874       9.623       8.974       7.497       4.617      1.3716E-02
   2    10.00       9.997       9.989       9.961       9.874       9.623       8.974       7.497       4.617      1.3716E-02
   3    10.00       9.997       9.989       9.961       9.874       9.623       8.974       7.497       4.617      1.3716E-02
   4    10.00       9.997       9.989       9.961       9.874       9.623       8.974       7.497       4.617      1.3716E-02
   5    10.00       9.997       9.989       9.961       9.874       9.623       8.974       7.497       4.617      1.3716E-02
   6    10.00       9.997       9.989       9.961       9.874       9.623       8.974       7.497       4.617      1.3716E-02
   7    10.00       9.997       9.989       9.961       9.874       9.623       8.974       7.497       4.617      1.3716E-02
   8    10.00       9.997       9.989       9.961       9.874       9.623       8.974       7.497       4.617      1.3716E-02
   9    10.00       9.997       9.989       9.961       9.874       9.623       8.974       7.497       4.617      1.3716E-02
  10    10.00       9.997       9.989       9.961       9.874       9.623       8.974       7.497       4.617      1.3716E-02
1
              HEAD IN LAYER   4 AT END OF TIME STEP  29 IN STRESS PERIOD    2
  ---------------------------------------------------------------------------

            1           2           3           4           5           6           7           8           9          10
 ........................................................................................................................
   1    10.00       9.997       9.988       9.960       9.870       9.614       8.956       7.467       4.581      1.3703E-02
   2    10.00       9.997       9.988       9.960       9.870       9.614       8.956       7.467       4.581      1.3703E-02
   3    10.00       9.997       9.988       9.960       9.870       9.614       8.956       7.467       4.581      1.3703E-02
   4    10.00       9.997       9.988       9.960       9.870       9.614       8.956       7.467       4.581      1.3703E-02
   5    10.00       9.997       9.988       9.960       9.870       9.614       8.956       7.467       4.581      1.3703E-02
   6    10.00       9.997       9.988       9.960       9.870       9.614       8.956       7.467       4.581      1.3703E-02
   7    10.00       9.997       9.988       9.960       9.870       9.614       8.956       7.467       4.581      1.3703E-02
   8    10.00       9.997       9.988       9.960       9.870       9.614       8.956       7.467       4.581      1.3703E-02
   9    10.00       9.997       9.988       9.960       9.870       9.614       8.956       7.467       4.581      1.3703E-02
  10    10.00       9.997       9.988       9.960       9.870       9.614       8.956       7.467       4.581      1.3703E-02

 HEAD WILL BE SAVED ON UNIT   51 AT END OF TIME STEP   29, STRESS PERIOD    2

 DRAWDOWN WILL BE SAVED ON UNIT   52 AT END OF TIME STEP   29, STRESS PERIOD    2
1
  VOLUMETRIC BUDGET FOR ENTIRE MODEL AT END OF TIME STEP   29, STRESS PERIOD   2
  ------------------------------------------------------------------------------

     CUMULATIVE VOLUMES      L**3       RATES FOR THIS TIME STEP      L**3/T
     ------------------                 ------------------------

           IN:                                      IN:
           ---                                      ---
             STORAGE =      198710.7188               STORAGE =        2393.3369
       CONSTANT HEAD =           0.0000         CONSTANT HEAD =           0.0000
               WELLS =           0.0000                 WELLS =           0.0000
     HEAD DEP BOUNDS =          10.3073       HEAD DEP BOUNDS =           1.6244

            TOTAL IN =      198721.0312              TOTAL IN =        2394.9614

          OUT:                                     OUT:
          ----                                     ----
             STORAGE =           0.0000               STORAGE =           0.0000
       CONSTANT HEAD =           0.0000         CONSTANT HEAD =           0.0000
               WELLS =           0.0000                 WELLS =           0.0000
     HEAD DEP BOUNDS =      198721.2500       HEAD DEP BOUNDS =        2394.9473

           TOTAL OUT =      198721.2500             TOTAL OUT =        2394.9473

            IN - OUT =          -0.2188              IN - OUT =       1.4160E-02

 PERCENT DISCREPANCY =          -0.00     PERCENT DISCREPANCY =           0.00






         TIME SUMMARY AT END OF TIME STEP   29 IN STRESS PERIOD    2
                    SECONDS     MINUTES      HOURS       DAYS        YEARS
                    -----------------------------------------------------------
   TIME STEP LENGTH  86400.      1440.0      24.000      1.0000     2.73785E-03
 STRESS PERIOD TIME 2.50560E+06  41760.      696.00      29.000     7.93977E-02
         TOTAL TIME 2.59200E+06  43200.      720.00      30.000     8.21355E-02
1
 
 SOLVING FOR HEAD 

 OUTPUT CONTROL FOR STRESS PERIOD    2   TIME STEP   30
    SAVE HEAD FOR ALL LAYERS
    SAVE DRAWDOWN FOR ALL LAYERS
    SAVE BUDGET
    PRINT HEAD FOR ALL LAYERS
    PRINT BUDGET
 UBDSV1 SAVING "         STORAGE" ON UNIT  53 AT TIME STEP 30, STRESS PERIOD   2
 UBDSV2 SAVING "   CONSTANT HEAD" ON UNIT  53 AT TIME STEP 30, STRESS PERIOD   2
 UBDSV1 SAVING "FLOW RIGHT FACE " ON UNIT  53 AT TIME STEP 30, STRESS PERIOD   2
 UBDSV1 SAVING "FLOW FRONT FACE " ON UNIT  53 AT TIME STEP 30, STRESS PERIOD   2
 UBDSV1 SAVING "FLOW LOWER FACE " ON UNIT  53 AT TIME STEP 30, STRESS PERIOD   2
1
              HEAD IN LAYER   1 AT END OF TIME STEP  30 IN STRESS PERIOD    2
  ---------------------------------------------------------------------------

            1           2           3           4           5           6           7           8           9          10
 ........................................................................................................................
   1    10.00       9.997       9.990       9.964       9.882       9.642       9.015       7.569       4.711      7.3386E-03
   2    10.00       9.997       9.990       9.964       9.882       9.642       9.015       7.569       4.711      7.3386E-03
   3    10.00       9.997       9.990       9.964       9.882       9.642       9.015       7.569       4.711      7.3386E-03
   4    10.00       9.997       9.990       9.964       9.882       9.642       9.015       7.569       4.711      7.3386E-03
   5    10.00       9.997       9.990       9.964       9.882       9.642       9.015       7.569       4.711      7.3386E-03
   6    10.00       9.997       9.990       9.964       9.882       9.642       9.015       7.569       4.711      7.3386E-03
   7    10.00       9.997       9.990       9.964       9.882       9.642       9.015       7.569       4.711      7.3386E-03
   8    10.00       9.997       9.990       9.964       9.882       9.642       9.015       7.569       4.711      7.3386E-03
   9    10.00       9.997       9.990       9.964       9.882       9.642       9.015       7.569       4.711      7.3386E-03
  10    10.00       9.997       9.990       9.964       9.882       9.642       9.015       7.569       4.711      7.3386E-03
1
              HEAD IN LAYER   2 AT END OF TIME STEP  30 IN STRESS PERIOD    2
  ---------------------------------------------------------------------------

            1           2           3           4           5           6           7           8           9          10
 ........................................................................................................................
   1    10.00       9.997       9.988       9.960       9.871       9.617       8.964       7.487       4.622      1.2824E-02
   2    10.00       9.997       9.988       9.960       9.871       9.617       8.964       7.487       4.622      1.2824E-02
   3    10.00       9.997       9.988       9.960       9.871       9.617       8.964       7.487       4.622      1.2824E-02
   4    10.00       9.997       9.988       9.960       9.871       9.617       8.964       7.487       4.622      1.2824E-02
   5    10.00       9.997       9.988       9.960       9.871       9.617       8.964       7.487       4.622      1.2824E-02
   6    10.00       9.997       9.988       9.960       9.871       9.617       8.964       7.487       4.622      1.2824E-02
   7    10.00       9.997       9.988       9.960       9.871       9.617       8.964       7.487       4.622      1.2824E-02
   8    10.00       9.997       9.988       9.960       9.871       9.617       8.964       7.487       4.622      1.2824E-02
   9    10.00       9.997       9.988       9.960       9.871       9.617       8.964       7.487       4.622      1.2824E-02
  10    10.00       9.997       9.988       9.960       9.871       9.617       8.964       7.487       4.622      1.2824E-02
1
              HEAD IN LAYER   3 AT END OF TIME STEP  30 IN STRESS PERIOD    2
  ---------------------------------------------------------------------------

            1           2           3           4           5           6           7           8           9          10
 ........................................................................................................................
   1    10.00       9.997       9.987       9.957       9.864       9.599       8.928       7.428       4.551      1.3520E-02
   2    10.00       9.997       9.987       9.957       9.864       9.599       8.928       7.428       4.551      1.3520E-02
   3    10.00       9.997       9.987       9.957       9.864       9.599       8.928       7.428       4.551      1.3520E-02
   4    10.00       9.997       9.987       9.957       9.864       9.599       8.928       7.428       4.551      1.3520E-02
   5    10.00       9.997       9.987       9.957       9.864       9.599       8.928       7.428       4.551      1.3520E-02
   6    10.00       9.997       9.987       9.957       9.864       9.599       8.928       7.428       4.551      1.3520E-02
   7    10.00       9.997       9.987       9.957       9.864       9.599       8.928       7.428       4.551      1.3520E-02
   8    10.00       9.997       9.987       9.957       9.864       9.599       8.928       7.428       4.551      1.3520E-02
   9    10.00       9.997       9.987       9.957       9.864       9.599       8.928       7.428       4.551      1.3520E-02
  10    10.00       9.997       9.987       9.957       9.864       9.599       8.928       7.428       4.551      1.3520E-02
1
              HEAD IN LAYER   4 AT END OF TIME STEP  30 IN STRESS PERIOD    2
  ---------------------------------------------------------------------------

            1           2           3           4           5           6           7           8           9          10
 ........................................................................................................................
   1    10.00       9.997       9.987       9.956       9.860       9.591       8.911       7.399       4.516      1.3510E-02
   2    10.00       9.997       9.987       9.956       9.860       9.591       8.911       7.399       4.516      1.3510E-02
   3    10.00       9.997       9.987       9.956       9.860       9.591       8.911       7.399       4.516      1.3510E-02
   4    10.00       9.997       9.987       9.956       9.860       9.591       8.911       7.399       4.516      1.3510E-02
   5    10.00       9.997       9.987       9.956       9.860       9.591       8.911       7.399       4.516      1.3510E-02
   6    10.00       9.997       9.987       9.956       9.860       9.591       8.911       7.399       4.516      1.3510E-02
   7    10.00       9.997       9.987       9.956       9.860       9.591       8.911       7.399       4.516      1.3510E-02
   8    10.00       9.997       9.987       9.956       9.860       9.591       8.911       7.399       4.516      1.3510E-02
   9    10.00       9.997       9.987       9.956       9.860       9.591       8.911       7.399       4.516      1.3510E-02
  10    10.00       9.997       9.987       9.956       9.860       9.591       8.911       7.399       4.516      1.3510E-02

 HEAD WILL BE SAVED ON UNIT   51 AT END OF TIME STEP   30, STRESS PERIOD    2

 DRAWDOWN WILL BE SAVED ON UNIT   52 AT END OF TIME STEP   30, STRESS PERIOD    2
1
  VOLUMETRIC BUDGET FOR ENTIRE MODEL AT END OF TIME STEP   30, STRESS PERIOD   2
  ------------------------------------------------------------------------------

     CUMULATIVE VOLUMES      L**3       RATES FOR THIS TIME STEP      L**3/T
     ------------------                 ------------------------

           IN:                                      IN:
           ---                                      ---
             STORAGE =      201068.5000               STORAGE =        2357.7759
       CONSTANT HEAD =           0.0000         CONSTANT HEAD =           0.0000
               WELLS =           0.0000                 WELLS =           0.0000
     HEAD DEP BOUNDS =          12.1443       HEAD DEP BOUNDS =           1.8370

            TOTAL IN =      201080.6406              TOTAL IN =        2359.6128

          OUT:                                     OUT:
          ----                                     ----
             STORAGE =           0.0000               STORAGE =           0.0000
       CONSTANT HEAD =           0.0000         CONSTANT HEAD =           0.0000
               WELLS =           0.0000                 WELLS =           0.0000
     HEAD DEP BOUNDS =      201080.8594       HEAD DEP BOUNDS =        2359.6062

           TOTAL OUT =      201080.8594             TOTAL OUT =        2359.6062

            IN - OUT =          -0.2188              IN - OUT =       6.5918E-03

 PERCENT DISCREPANCY =          -0.00     PERCENT DISCREPANCY =           0.00






         TIME SUMMARY AT END OF TIME STEP   30 IN STRESS PERIOD    2
                    SECONDS     MINUTES      HOURS       DAYS        YEARS
                    -----------------------------------------------------------
   TIME STEP LENGTH  86400.      1440.0      24.000      1.0000     2.73785E-03
 STRESS PERIOD TIME 2.59200E+06  43200.      720.00      30.000     8.21355E-02
         TOTAL TIME 2.67840E+06  44640.      744.00      31.000     8.48734E-02
1
 
 SOLVING FOR HEAD 

 OUTPUT CONTROL FOR STRESS PERIOD    2   TIME STEP   31
    SAVE HEAD FOR ALL LAYERS
    SAVE DRAWDOWN FOR ALL LAYERS
    SAVE BUDGET
    PRINT HEAD FOR ALL LAYERS
    PRINT BUDGET
 UBDSV1 SAVING "         STORAGE" ON UNIT  53 AT TIME STEP 31, STRESS PERIOD   2
 UBDSV2 SAVING "   CONSTANT HEAD" ON UNIT  53 AT TIME STEP 31, STRESS PERIOD   2
 UBDSV1 SAVING "FLOW RIGHT FACE " ON UNIT  53 AT TIME STEP 31, STRESS PERIOD   2
 UBDSV1 SAVING "FLOW FRONT FACE " ON UNIT  53 AT TIME STEP 31, STRESS PERIOD   2
 UBDSV1 SAVING "FLOW LOWER FACE " ON UNIT  53 AT TIME STEP 31, STRESS PERIOD   2
1
              HEAD IN LAYER   1 AT END OF TIME STEP  31 IN STRESS PERIOD    2
  ---------------------------------------------------------------------------

            1           2           3           4           5           6           7           8           9          10
 ........................................................................................................................
   1    10.00       9.997       9.988       9.960       9.872       9.619       8.969       7.499       4.642      7.2183E-03
   2    10.00       9.997       9.988       9.960       9.872       9.619       8.969       7.499       4.642      7.2183E-03
   3    10.00       9.997       9.988       9.960       9.872       9.619       8.969       7.499       4.642      7.2183E-03
   4    10.00       9.997       9.988       9.960       9.872       9.619       8.969       7.499       4.642      7.2183E-03
   5    10.00       9.997       9.988       9.960       9.872       9.619       8.969       7.499       4.642      7.2183E-03
   6    10.00       9.997       9.988       9.960       9.872       9.619       8.969       7.499       4.642      7.2183E-03
   7    10.00       9.997       9.988       9.960       9.872       9.619       8.969       7.499       4.642      7.2183E-03
   8    10.00       9.997       9.988       9.960       9.872       9.619       8.969       7.499       4.642      7.2183E-03
   9    10.00       9.997       9.988       9.960       9.872       9.619       8.969       7.499       4.642      7.2183E-03
  10    10.00       9.997       9.988       9.960       9.872       9.619       8.969       7.499       4.642      7.2183E-03
1
              HEAD IN LAYER   2 AT END OF TIME STEP  31 IN STRESS PERIOD    2
  ---------------------------------------------------------------------------

            1           2           3           4           5           6           7           8           9          10
 ........................................................................................................................
   1    10.00       9.997       9.987       9.956       9.861       9.593       8.918       7.419       4.556      1.2640E-02
   2    10.00       9.997       9.987       9.956       9.861       9.593       8.918       7.419       4.556      1.2640E-02
   3    10.00       9.997       9.987       9.956       9.861       9.593       8.918       7.419       4.556      1.2640E-02
   4    10.00       9.997       9.987       9.956       9.861       9.593       8.918       7.419       4.556      1.2640E-02
   5    10.00       9.997       9.987       9.956       9.861       9.593       8.918       7.419       4.556      1.2640E-02
   6    10.00       9.997       9.987       9.956       9.861       9.593       8.918       7.419       4.556      1.2640E-02
   7    10.00       9.997       9.987       9.956       9.861       9.593       8.918       7.419       4.556      1.2640E-02
   8    10.00       9.997       9.987       9.956       9.861       9.593       8.918       7.419       4.556      1.2640E-02
   9    10.00       9.997       9.987       9.956       9.861       9.593       8.918       7.419       4.556      1.2640E-02
  10    10.00       9.997       9.987       9.956       9.861       9.593       8.918       7.419       4.556      1.2640E-02
1
              HEAD IN LAYER   3 AT END OF TIME STEP  31 IN STRESS PERIOD    2
  ---------------------------------------------------------------------------

            1           2           3           4           5           6           7           8           9          10
 ........................................................................................................................
   1    10.00       9.996       9.986       9.953       9.853       9.575       8.883       7.362       4.488      1.3331E-02
   2    10.00       9.996       9.986       9.953       9.853       9.575       8.883       7.362       4.488      1.3331E-02
   3    10.00       9.996       9.986       9.953       9.853       9.575       8.883       7.362       4.488      1.3331E-02
   4    10.00       9.996       9.986       9.953       9.853       9.575       8.883       7.362       4.488      1.3331E-02
   5    10.00       9.996       9.986       9.953       9.853       9.575       8.883       7.362       4.488      1.3331E-02
   6    10.00       9.996       9.986       9.953       9.853       9.575       8.883       7.362       4.488      1.3331E-02
   7    10.00       9.996       9.986       9.953       9.853       9.575       8.883       7.362       4.488      1.3331E-02
   8    10.00       9.996       9.986       9.953       9.853       9.575       8.883       7.362       4.488      1.3331E-02
   9    10.00       9.996       9.986       9.953       9.853       9.575       8.883       7.362       4.488      1.3331E-02
  10    10.00       9.996       9.986       9.953       9.853       9.575       8.883       7.362       4.488      1.3331E-02
1
              HEAD IN LAYER   4 AT END OF TIME STEP  31 IN STRESS PERIOD    2
  ---------------------------------------------------------------------------

            1           2           3           4           5           6           7           8           9          10
 ........................................................................................................................
   1    10.00       9.996       9.986       9.952       9.849       9.567       8.865       7.333       4.454      1.3324E-02
   2    10.00       9.996       9.986       9.952       9.849       9.567       8.865       7.333       4.454      1.3324E-02
   3    10.00       9.996       9.986       9.952       9.849       9.567       8.865       7.333       4.454      1.3324E-02
   4    10.00       9.996       9.986       9.952       9.849       9.567       8.865       7.333       4.454      1.3324E-02
   5    10.00       9.996       9.986       9.952       9.849       9.567       8.865       7.333       4.454      1.3324E-02
   6    10.00       9.996       9.986       9.952       9.849       9.567       8.865       7.333       4.454      1.3324E-02
   7    10.00       9.996       9.986       9.952       9.849       9.567       8.865       7.333       4.454      1.3324E-02
   8    10.00       9.996       9.986       9.952       9.849       9.567       8.865       7.333       4.454      1.3324E-02
   9    10.00       9.996       9.986       9.952       9.849       9.567       8.865       7.333       4.454      1.3324E-02
  10    10.00       9.996       9.986       9.952       9.849       9.567       8.865       7.333       4.454      1.3324E-02

 HEAD WILL BE SAVED ON UNIT   51 AT END OF TIME STEP   31, STRESS PERIOD    2

 DRAWDOWN WILL BE SAVED ON UNIT   52 AT END OF TIME STEP   31, STRESS PERIOD    2
1
  VOLUMETRIC BUDGET FOR ENTIRE MODEL AT END OF TIME STEP   31, STRESS PERIOD   2
  ------------------------------------------------------------------------------

     CUMULATIVE VOLUMES      L**3       RATES FOR THIS TIME STEP      L**3/T
     ------------------                 ------------------------

           IN:                                      IN:
           ---                                      ---
             STORAGE =      203392.0781               STORAGE =        2323.5823
       CONSTANT HEAD =           0.0000         CONSTANT HEAD =           0.0000
               WELLS =           0.0000                 WELLS =           0.0000
     HEAD DEP BOUNDS =          14.2138       HEAD DEP BOUNDS =           2.0695

            TOTAL IN =      203406.2969              TOTAL IN =        2325.6519

          OUT:                                     OUT:
          ----                                     ----
             STORAGE =           0.0000               STORAGE =           0.0000
       CONSTANT HEAD =           0.0000         CONSTANT HEAD =           0.0000
               WELLS =           0.0000                 WELLS =           0.0000
     HEAD DEP BOUNDS =      203406.5000       HEAD DEP BOUNDS =        2325.6470

           TOTAL OUT =      203406.5000             TOTAL OUT =        2325.6470

            IN - OUT =          -0.2031              IN - OUT =       4.8828E-03

 PERCENT DISCREPANCY =          -0.00     PERCENT DISCREPANCY =           0.00






         TIME SUMMARY AT END OF TIME STEP   31 IN STRESS PERIOD    2
                    SECONDS     MINUTES      HOURS       DAYS        YEARS
                    -----------------------------------------------------------
   TIME STEP LENGTH  86400.      1440.0      24.000      1.0000     2.73785E-03
 STRESS PERIOD TIME 2.67840E+06  44640.      744.00      31.000     8.48734E-02
         TOTAL TIME 2.76480E+06  46080.      768.00      32.000     8.76112E-02
1
 
 SOLVING FOR HEAD 

 OUTPUT CONTROL FOR STRESS PERIOD    2   TIME STEP   32
    SAVE HEAD FOR ALL LAYERS
    SAVE DRAWDOWN FOR ALL LAYERS
    SAVE BUDGET
    PRINT HEAD FOR ALL LAYERS
    PRINT BUDGET
 UBDSV1 SAVING "         STORAGE" ON UNIT  53 AT TIME STEP 32, STRESS PERIOD   2
 UBDSV2 SAVING "   CONSTANT HEAD" ON UNIT  53 AT TIME STEP 32, STRESS PERIOD   2
 UBDSV1 SAVING "FLOW RIGHT FACE " ON UNIT  53 AT TIME STEP 32, STRESS PERIOD   2
 UBDSV1 SAVING "FLOW FRONT FACE " ON UNIT  53 AT TIME STEP 32, STRESS PERIOD   2
 UBDSV1 SAVING "FLOW LOWER FACE " ON UNIT  53 AT TIME STEP 32, STRESS PERIOD   2
1
              HEAD IN LAYER   1 AT END OF TIME STEP  32 IN STRESS PERIOD    2
  ---------------------------------------------------------------------------

            1           2           3           4           5           6           7           8           9          10
 ........................................................................................................................
   1    10.00       9.997       9.987       9.956       9.862       9.596       8.924       7.431       4.576      7.1030E-03
   2    10.00       9.997       9.987       9.956       9.862       9.596       8.924       7.431       4.576      7.1030E-03
   3    10.00       9.997       9.987       9.956       9.862       9.596       8.924       7.431       4.576      7.1030E-03
   4    10.00       9.997       9.987       9.956       9.862       9.596       8.924       7.431       4.576      7.1030E-03
   5    10.00       9.997       9.987       9.956       9.862       9.596       8.924       7.431       4.576      7.1030E-03
   6    10.00       9.997       9.987       9.956       9.862       9.596       8.924       7.431       4.576      7.1030E-03
   7    10.00       9.997       9.987       9.956       9.862       9.596       8.924       7.431       4.576      7.1030E-03
   8    10.00       9.997       9.987       9.956       9.862       9.596       8.924       7.431       4.576      7.1030E-03
   9    10.00       9.997       9.987       9.956       9.862       9.596       8.924       7.431       4.576      7.1030E-03
  10    10.00       9.997       9.987       9.956       9.862       9.596       8.924       7.431       4.576      7.1030E-03
1
              HEAD IN LAYER   2 AT END OF TIME STEP  32 IN STRESS PERIOD    2
  ---------------------------------------------------------------------------

            1           2           3           4           5           6           7           8           9          10
 ........................................................................................................................
   1    10.00       9.996       9.986       9.952       9.850       9.569       8.873       7.353       4.493      1.2462E-02
   2    10.00       9.996       9.986       9.952       9.850       9.569       8.873       7.353       4.493      1.2462E-02
   3    10.00       9.996       9.986       9.952       9.850       9.569       8.873       7.353       4.493      1.2462E-02
   4    10.00       9.996       9.986       9.952       9.850       9.569       8.873       7.353       4.493      1.2462E-02
   5    10.00       9.996       9.986       9.952       9.850       9.569       8.873       7.353       4.493      1.2462E-02
   6    10.00       9.996       9.986       9.952       9.850       9.569       8.873       7.353       4.493      1.2462E-02
   7    10.00       9.996       9.986       9.952       9.850       9.569       8.873       7.353       4.493      1.2462E-02
   8    10.00       9.996       9.986       9.952       9.850       9.569       8.873       7.353       4.493      1.2462E-02
   9    10.00       9.996       9.986       9.952       9.850       9.569       8.873       7.353       4.493      1.2462E-02
  10    10.00       9.996       9.986       9.952       9.850       9.569       8.873       7.353       4.493      1.2462E-02
1
              HEAD IN LAYER   3 AT END OF TIME STEP  32 IN STRESS PERIOD    2
  ---------------------------------------------------------------------------

            1           2           3           4           5           6           7           8           9          10
 ........................................................................................................................
   1    10.00       9.996       9.985       9.949       9.842       9.551       8.838       7.296       4.427      1.3150E-02
   2    10.00       9.996       9.985       9.949       9.842       9.551       8.838       7.296       4.427      1.3150E-02
   3    10.00       9.996       9.985       9.949       9.842       9.551       8.838       7.296       4.427      1.3150E-02
   4    10.00       9.996       9.985       9.949       9.842       9.551       8.838       7.296       4.427      1.3150E-02
   5    10.00       9.996       9.985       9.949       9.842       9.551       8.838       7.296       4.427      1.3150E-02
   6    10.00       9.996       9.985       9.949       9.842       9.551       8.838       7.296       4.427      1.3150E-02
   7    10.00       9.996       9.985       9.949       9.842       9.551       8.838       7.296       4.427      1.3150E-02
   8    10.00       9.996       9.985       9.949       9.842       9.551       8.838       7.296       4.427      1.3150E-02
   9    10.00       9.996       9.985       9.949       9.842       9.551       8.838       7.296       4.427      1.3150E-02
  10    10.00       9.996       9.985       9.949       9.842       9.551       8.838       7.296       4.427      1.3150E-02
1
              HEAD IN LAYER   4 AT END OF TIME STEP  32 IN STRESS PERIOD    2
  ---------------------------------------------------------------------------

            1           2           3           4           5           6           7           8           9          10
 ........................................................................................................................
   1    10.00       9.996       9.984       9.947       9.838       9.542       8.820       7.268       4.394      1.3145E-02
   2    10.00       9.996       9.984       9.947       9.838       9.542       8.820       7.268       4.394      1.3145E-02
   3    10.00       9.996       9.984       9.947       9.838       9.542       8.820       7.268       4.394      1.3145E-02
   4    10.00       9.996       9.984       9.947       9.838       9.542       8.820       7.268       4.394      1.3145E-02
   5    10.00       9.996       9.984       9.947       9.838       9.542       8.820       7.268       4.394      1.3145E-02
   6    10.00       9.996       9.984       9.947       9.838       9.542       8.820       7.268       4.394      1.3145E-02
   7    10.00       9.996       9.984       9.947       9.838       9.542       8.820       7.268       4.394      1.3145E-02
   8    10.00       9.996       9.984       9.947       9.838       9.542       8.820       7.268       4.394      1.3145E-02
   9    10.00       9.996       9.984       9.947       9.838       9.542       8.820       7.268       4.394      1.3145E-02
  10    10.00       9.996       9.984       9.947       9.838       9.542       8.820       7.268       4.394      1.3145E-02

 HEAD WILL BE SAVED ON UNIT   51 AT END OF TIME STEP   32, STRESS PERIOD    2

 DRAWDOWN WILL BE SAVED ON UNIT   52 AT END OF TIME STEP   32, STRESS PERIOD    2
1
  VOLUMETRIC BUDGET FOR ENTIRE MODEL AT END OF TIME STEP   32, STRESS PERIOD   2
  ------------------------------------------------------------------------------

     CUMULATIVE VOLUMES      L**3       RATES FOR THIS TIME STEP      L**3/T
     ------------------                 ------------------------

           IN:                                      IN:
           ---                                      ---
             STORAGE =      205682.7500               STORAGE =        2290.6714
       CONSTANT HEAD =           0.0000         CONSTANT HEAD =           0.0000
               WELLS =           0.0000                 WELLS =           0.0000
     HEAD DEP BOUNDS =          16.5368       HEAD DEP BOUNDS =           2.3230

            TOTAL IN =      205699.2812              TOTAL IN =        2292.9944

          OUT:                                     OUT:
          ----                                     ----
             STORAGE =           0.0000               STORAGE =           0.0000
       CONSTANT HEAD =           0.0000         CONSTANT HEAD =           0.0000
               WELLS =           0.0000                 WELLS =           0.0000
     HEAD DEP BOUNDS =      205699.5000       HEAD DEP BOUNDS =        2293.0059

           TOTAL OUT =      205699.5000             TOTAL OUT =        2293.0059

            IN - OUT =          -0.2188              IN - OUT =      -1.1475E-02

 PERCENT DISCREPANCY =          -0.00     PERCENT DISCREPANCY =          -0.00






         TIME SUMMARY AT END OF TIME STEP   32 IN STRESS PERIOD    2
                    SECONDS     MINUTES      HOURS       DAYS        YEARS
                    -----------------------------------------------------------
   TIME STEP LENGTH  86400.      1440.0      24.000      1.0000     2.73785E-03
 STRESS PERIOD TIME 2.76480E+06  46080.      768.00      32.000     8.76112E-02
         TOTAL TIME 2.85120E+06  47520.      792.00      33.000     9.03491E-02
1
 
 SOLVING FOR HEAD 

 OUTPUT CONTROL FOR STRESS PERIOD    2   TIME STEP   33
    SAVE HEAD FOR ALL LAYERS
    SAVE DRAWDOWN FOR ALL LAYERS
    SAVE BUDGET
    PRINT HEAD FOR ALL LAYERS
    PRINT BUDGET
 UBDSV1 SAVING "         STORAGE" ON UNIT  53 AT TIME STEP 33, STRESS PERIOD   2
 UBDSV2 SAVING "   CONSTANT HEAD" ON UNIT  53 AT TIME STEP 33, STRESS PERIOD   2
 UBDSV1 SAVING "FLOW RIGHT FACE " ON UNIT  53 AT TIME STEP 33, STRESS PERIOD   2
 UBDSV1 SAVING "FLOW FRONT FACE " ON UNIT  53 AT TIME STEP 33, STRESS PERIOD   2
 UBDSV1 SAVING "FLOW LOWER FACE " ON UNIT  53 AT TIME STEP 33, STRESS PERIOD   2
1
              HEAD IN LAYER   1 AT END OF TIME STEP  33 IN STRESS PERIOD    2
  ---------------------------------------------------------------------------

            1           2           3           4           5           6           7           8           9          10
 ........................................................................................................................
   1    10.00       9.996       9.986       9.952       9.851       9.572       8.879       7.364       4.512      6.9923E-03
   2    10.00       9.996       9.986       9.952       9.851       9.572       8.879       7.364       4.512      6.9923E-03
   3    10.00       9.996       9.986       9.952       9.851       9.572       8.879       7.364       4.512      6.9923E-03
   4    10.00       9.996       9.986       9.952       9.851       9.572       8.879       7.364       4.512      6.9923E-03
   5    10.00       9.996       9.986       9.952       9.851       9.572       8.879       7.364       4.512      6.9923E-03
   6    10.00       9.996       9.986       9.952       9.851       9.572       8.879       7.364       4.512      6.9923E-03
   7    10.00       9.996       9.986       9.952       9.851       9.572       8.879       7.364       4.512      6.9923E-03
   8    10.00       9.996       9.986       9.952       9.851       9.572       8.879       7.364       4.512      6.9923E-03
   9    10.00       9.996       9.986       9.952       9.851       9.572       8.879       7.364       4.512      6.9923E-03
  10    10.00       9.996       9.986       9.952       9.851       9.572       8.879       7.364       4.512      6.9923E-03
1
              HEAD IN LAYER   2 AT END OF TIME STEP  33 IN STRESS PERIOD    2
  ---------------------------------------------------------------------------

            1           2           3           4           5           6           7           8           9          10
 ........................................................................................................................
   1    10.00       9.996       9.984       9.947       9.839       9.545       8.828       7.288       4.432      1.2292E-02
   2    10.00       9.996       9.984       9.947       9.839       9.545       8.828       7.288       4.432      1.2292E-02
   3    10.00       9.996       9.984       9.947       9.839       9.545       8.828       7.288       4.432      1.2292E-02
   4    10.00       9.996       9.984       9.947       9.839       9.545       8.828       7.288       4.432      1.2292E-02
   5    10.00       9.996       9.984       9.947       9.839       9.545       8.828       7.288       4.432      1.2292E-02
   6    10.00       9.996       9.984       9.947       9.839       9.545       8.828       7.288       4.432      1.2292E-02
   7    10.00       9.996       9.984       9.947       9.839       9.545       8.828       7.288       4.432      1.2292E-02
   8    10.00       9.996       9.984       9.947       9.839       9.545       8.828       7.288       4.432      1.2292E-02
   9    10.00       9.996       9.984       9.947       9.839       9.545       8.828       7.288       4.432      1.2292E-02
  10    10.00       9.996       9.984       9.947       9.839       9.545       8.828       7.288       4.432      1.2292E-02
1
              HEAD IN LAYER   3 AT END OF TIME STEP  33 IN STRESS PERIOD    2
  ---------------------------------------------------------------------------

            1           2           3           4           5           6           7           8           9          10
 ........................................................................................................................
   1    10.00       9.995       9.983       9.944       9.831       9.527       8.793       7.232       4.368      1.2975E-02
   2    10.00       9.995       9.983       9.944       9.831       9.527       8.793       7.232       4.368      1.2975E-02
   3    10.00       9.995       9.983       9.944       9.831       9.527       8.793       7.232       4.368      1.2975E-02
   4    10.00       9.995       9.983       9.944       9.831       9.527       8.793       7.232       4.368      1.2975E-02
   5    10.00       9.995       9.983       9.944       9.831       9.527       8.793       7.232       4.368      1.2975E-02
   6    10.00       9.995       9.983       9.944       9.831       9.527       8.793       7.232       4.368      1.2975E-02
   7    10.00       9.995       9.983       9.944       9.831       9.527       8.793       7.232       4.368      1.2975E-02
   8    10.00       9.995       9.983       9.944       9.831       9.527       8.793       7.232       4.368      1.2975E-02
   9    10.00       9.995       9.983       9.944       9.831       9.527       8.793       7.232       4.368      1.2975E-02
  10    10.00       9.995       9.983       9.944       9.831       9.527       8.793       7.232       4.368      1.2975E-02
1
              HEAD IN LAYER   4 AT END OF TIME STEP  33 IN STRESS PERIOD    2
  ---------------------------------------------------------------------------

            1           2           3           4           5           6           7           8           9          10
 ........................................................................................................................
   1    10.00       9.995       9.982       9.943       9.827       9.517       8.775       7.204       4.337      1.2973E-02
   2    10.00       9.995       9.982       9.943       9.827       9.517       8.775       7.204       4.337      1.2973E-02
   3    10.00       9.995       9.982       9.943       9.827       9.517       8.775       7.204       4.337      1.2973E-02
   4    10.00       9.995       9.982       9.943       9.827       9.517       8.775       7.204       4.337      1.2973E-02
   5    10.00       9.995       9.982       9.943       9.827       9.517       8.775       7.204       4.337      1.2973E-02
   6    10.00       9.995       9.982       9.943       9.827       9.517       8.775       7.204       4.337      1.2973E-02
   7    10.00       9.995       9.982       9.943       9.827       9.517       8.775       7.204       4.337      1.2973E-02
   8    10.00       9.995       9.982       9.943       9.827       9.517       8.775       7.204       4.337      1.2973E-02
   9    10.00       9.995       9.982       9.943       9.827       9.517       8.775       7.204       4.337      1.2973E-02
  10    10.00       9.995       9.982       9.943       9.827       9.517       8.775       7.204       4.337      1.2973E-02

 HEAD WILL BE SAVED ON UNIT   51 AT END OF TIME STEP   33, STRESS PERIOD    2

 DRAWDOWN WILL BE SAVED ON UNIT   52 AT END OF TIME STEP   33, STRESS PERIOD    2
1
  VOLUMETRIC BUDGET FOR ENTIRE MODEL AT END OF TIME STEP   33, STRESS PERIOD   2
  ------------------------------------------------------------------------------

     CUMULATIVE VOLUMES      L**3       RATES FOR THIS TIME STEP      L**3/T
     ------------------                 ------------------------

           IN:                                      IN:
           ---                                      ---
             STORAGE =      207941.7344               STORAGE =        2258.9919
       CONSTANT HEAD =           0.0000         CONSTANT HEAD =           0.0000
               WELLS =           0.0000                 WELLS =           0.0000
     HEAD DEP BOUNDS =          19.1347       HEAD DEP BOUNDS =           2.5979

            TOTAL IN =      207960.8750              TOTAL IN =        2261.5898

          OUT:                                     OUT:
          ----                                     ----
             STORAGE =           0.0000               STORAGE =           0.0000
       CONSTANT HEAD =           0.0000         CONSTANT HEAD =           0.0000
               WELLS =           0.0000                 WELLS =           0.0000
     HEAD DEP BOUNDS =      207961.0938       HEAD DEP BOUNDS =        2261.5928

           TOTAL OUT =      207961.0938             TOTAL OUT =        2261.5928

            IN - OUT =          -0.2188              IN - OUT =      -2.9297E-03

 PERCENT DISCREPANCY =          -0.00     PERCENT DISCREPANCY =          -0.00






         TIME SUMMARY AT END OF TIME STEP   33 IN STRESS PERIOD    2
                    SECONDS     MINUTES      HOURS       DAYS        YEARS
                    -----------------------------------------------------------
   TIME STEP LENGTH  86400.      1440.0      24.000      1.0000     2.73785E-03
 STRESS PERIOD TIME 2.85120E+06  47520.      792.00      33.000     9.03491E-02
         TOTAL TIME 2.93760E+06  48960.      816.00      34.000     9.30869E-02
1
 
 SOLVING FOR HEAD 

 OUTPUT CONTROL FOR STRESS PERIOD    2   TIME STEP   34
    SAVE HEAD FOR ALL LAYERS
    SAVE DRAWDOWN FOR ALL LAYERS
    SAVE BUDGET
    PRINT HEAD FOR ALL LAYERS
    PRINT BUDGET
 UBDSV1 SAVING "         STORAGE" ON UNIT  53 AT TIME STEP 34, STRESS PERIOD   2
 UBDSV2 SAVING "   CONSTANT HEAD" ON UNIT  53 AT TIME STEP 34, STRESS PERIOD   2
 UBDSV1 SAVING "FLOW RIGHT FACE " ON UNIT  53 AT TIME STEP 34, STRESS PERIOD   2
 UBDSV1 SAVING "FLOW FRONT FACE " ON UNIT  53 AT TIME STEP 34, STRESS PERIOD   2
 UBDSV1 SAVING "FLOW LOWER FACE " ON UNIT  53 AT TIME STEP 34, STRESS PERIOD   2
1
              HEAD IN LAYER   1 AT END OF TIME STEP  34 IN STRESS PERIOD    2
  ---------------------------------------------------------------------------

            1           2           3           4           5           6           7           8           9          10
 ........................................................................................................................
   1    10.00       9.996       9.984       9.948       9.840       9.547       8.834       7.299       4.450      6.8862E-03
   2    10.00       9.996       9.984       9.948       9.840       9.547       8.834       7.299       4.450      6.8862E-03
   3    10.00       9.996       9.984       9.948       9.840       9.547       8.834       7.299       4.450      6.8862E-03
   4    10.00       9.996       9.984       9.948       9.840       9.547       8.834       7.299       4.450      6.8862E-03
   5    10.00       9.996       9.984       9.948       9.840       9.547       8.834       7.299       4.450      6.8862E-03
   6    10.00       9.996       9.984       9.948       9.840       9.547       8.834       7.299       4.450      6.8862E-03
   7    10.00       9.996       9.984       9.948       9.840       9.547       8.834       7.299       4.450      6.8862E-03
   8    10.00       9.996       9.984       9.948       9.840       9.547       8.834       7.299       4.450      6.8862E-03
   9    10.00       9.996       9.984       9.948       9.840       9.547       8.834       7.299       4.450      6.8862E-03
  10    10.00       9.996       9.984       9.948       9.840       9.547       8.834       7.299       4.450      6.8862E-03
1
              HEAD IN LAYER   2 AT END OF TIME STEP  34 IN STRESS PERIOD    2
  ---------------------------------------------------------------------------

            1           2           3           4           5           6           7           8           9          10
 ........................................................................................................................
   1    10.00       9.995       9.982       9.943       9.827       9.520       8.783       7.224       4.373      1.2127E-02
   2    10.00       9.995       9.982       9.943       9.827       9.520       8.783       7.224       4.373      1.2127E-02
   3    10.00       9.995       9.982       9.943       9.827       9.520       8.783       7.224       4.373      1.2127E-02
   4    10.00       9.995       9.982       9.943       9.827       9.520       8.783       7.224       4.373      1.2127E-02
   5    10.00       9.995       9.982       9.943       9.827       9.520       8.783       7.224       4.373      1.2127E-02
   6    10.00       9.995       9.982       9.943       9.827       9.520       8.783       7.224       4.373      1.2127E-02
   7    10.00       9.995       9.982       9.943       9.827       9.520       8.783       7.224       4.373      1.2127E-02
   8    10.00       9.995       9.982       9.943       9.827       9.520       8.783       7.224       4.373      1.2127E-02
   9    10.00       9.995       9.982       9.943       9.827       9.520       8.783       7.224       4.373      1.2127E-02
  10    10.00       9.995       9.982       9.943       9.827       9.520       8.783       7.224       4.373      1.2127E-02
1
              HEAD IN LAYER   3 AT END OF TIME STEP  34 IN STRESS PERIOD    2
  ---------------------------------------------------------------------------

            1           2           3           4           5           6           7           8           9          10
 ........................................................................................................................
   1    10.00       9.995       9.981       9.939       9.819       9.502       8.748       7.169       4.312      1.2807E-02
   2    10.00       9.995       9.981       9.939       9.819       9.502       8.748       7.169       4.312      1.2807E-02
   3    10.00       9.995       9.981       9.939       9.819       9.502       8.748       7.169       4.312      1.2807E-02
   4    10.00       9.995       9.981       9.939       9.819       9.502       8.748       7.169       4.312      1.2807E-02
   5    10.00       9.995       9.981       9.939       9.819       9.502       8.748       7.169       4.312      1.2807E-02
   6    10.00       9.995       9.981       9.939       9.819       9.502       8.748       7.169       4.312      1.2807E-02
   7    10.00       9.995       9.981       9.939       9.819       9.502       8.748       7.169       4.312      1.2807E-02
   8    10.00       9.995       9.981       9.939       9.819       9.502       8.748       7.169       4.312      1.2807E-02
   9    10.00       9.995       9.981       9.939       9.819       9.502       8.748       7.169       4.312      1.2807E-02
  10    10.00       9.995       9.981       9.939       9.819       9.502       8.748       7.169       4.312      1.2807E-02
1
              HEAD IN LAYER   4 AT END OF TIME STEP  34 IN STRESS PERIOD    2
  ---------------------------------------------------------------------------

            1           2           3           4           5           6           7           8           9          10
 ........................................................................................................................
   1    10.00       9.995       9.981       9.938       9.815       9.492       8.731       7.142       4.281      1.2807E-02
   2    10.00       9.995       9.981       9.938       9.815       9.492       8.731       7.142       4.281      1.2807E-02
   3    10.00       9.995       9.981       9.938       9.815       9.492       8.731       7.142       4.281      1.2807E-02
   4    10.00       9.995       9.981       9.938       9.815       9.492       8.731       7.142       4.281      1.2807E-02
   5    10.00       9.995       9.981       9.938       9.815       9.492       8.731       7.142       4.281      1.2807E-02
   6    10.00       9.995       9.981       9.938       9.815       9.492       8.731       7.142       4.281      1.2807E-02
   7    10.00       9.995       9.981       9.938       9.815       9.492       8.731       7.142       4.281      1.2807E-02
   8    10.00       9.995       9.981       9.938       9.815       9.492       8.731       7.142       4.281      1.2807E-02
   9    10.00       9.995       9.981       9.938       9.815       9.492       8.731       7.142       4.281      1.2807E-02
  10    10.00       9.995       9.981       9.938       9.815       9.492       8.731       7.142       4.281      1.2807E-02

 HEAD WILL BE SAVED ON UNIT   51 AT END OF TIME STEP   34, STRESS PERIOD    2

 DRAWDOWN WILL BE SAVED ON UNIT   52 AT END OF TIME STEP   34, STRESS PERIOD    2
1
  VOLUMETRIC BUDGET FOR ENTIRE MODEL AT END OF TIME STEP   34, STRESS PERIOD   2
  ------------------------------------------------------------------------------

     CUMULATIVE VOLUMES      L**3       RATES FOR THIS TIME STEP      L**3/T
     ------------------                 ------------------------

           IN:                                      IN:
           ---                                      ---
             STORAGE =      210170.1562               STORAGE =        2228.4246
       CONSTANT HEAD =           0.0000         CONSTANT HEAD =           0.0000
               WELLS =           0.0000                 WELLS =           0.0000
     HEAD DEP BOUNDS =          22.0307       HEAD DEP BOUNDS =           2.8960

            TOTAL IN =      210192.1875              TOTAL IN =        2231.3206

          OUT:                                     OUT:
          ----                                     ----
             STORAGE =           0.0000               STORAGE =           0.0000
       CONSTANT HEAD =           0.0000         CONSTANT HEAD =           0.0000
               WELLS =           0.0000                 WELLS =           0.0000
     HEAD DEP BOUNDS =      210192.4531       HEAD DEP BOUNDS =        2231.3582

           TOTAL OUT =      210192.4531             TOTAL OUT =        2231.3582

            IN - OUT =          -0.2656              IN - OUT =      -3.7598E-02

 PERCENT DISCREPANCY =          -0.00     PERCENT DISCREPANCY =          -0.00






         TIME SUMMARY AT END OF TIME STEP   34 IN STRESS PERIOD    2
                    SECONDS     MINUTES      HOURS       DAYS        YEARS
                    -----------------------------------------------------------
   TIME STEP LENGTH  86400.      1440.0      24.000      1.0000     2.73785E-03
 STRESS PERIOD TIME 2.93760E+06  48960.      816.00      34.000     9.30869E-02
         TOTAL TIME 3.02400E+06  50400.      840.00      35.000     9.58248E-02
1
 
 SOLVING FOR HEAD 

 OUTPUT CONTROL FOR STRESS PERIOD    2   TIME STEP   35
    SAVE HEAD FOR ALL LAYERS
    SAVE DRAWDOWN FOR ALL LAYERS
    SAVE BUDGET
    PRINT HEAD FOR ALL LAYERS
    PRINT BUDGET
 UBDSV1 SAVING "         STORAGE" ON UNIT  53 AT TIME STEP 35, STRESS PERIOD   2
 UBDSV2 SAVING "   CONSTANT HEAD" ON UNIT  53 AT TIME STEP 35, STRESS PERIOD   2
 UBDSV1 SAVING "FLOW RIGHT FACE " ON UNIT  53 AT TIME STEP 35, STRESS PERIOD   2
 UBDSV1 SAVING "FLOW FRONT FACE " ON UNIT  53 AT TIME STEP 35, STRESS PERIOD   2
 UBDSV1 SAVING "FLOW LOWER FACE " ON UNIT  53 AT TIME STEP 35, STRESS PERIOD   2
1
              HEAD IN LAYER   1 AT END OF TIME STEP  35 IN STRESS PERIOD    2
  ---------------------------------------------------------------------------

            1           2           3           4           5           6           7           8           9          10
 ........................................................................................................................
   1    10.00       9.995       9.982       9.943       9.829       9.523       8.789       7.235       4.391      6.7843E-03
   2    10.00       9.995       9.982       9.943       9.829       9.523       8.789       7.235       4.391      6.7843E-03
   3    10.00       9.995       9.982       9.943       9.829       9.523       8.789       7.235       4.391      6.7843E-03
   4    10.00       9.995       9.982       9.943       9.829       9.523       8.789       7.235       4.391      6.7843E-03
   5    10.00       9.995       9.982       9.943       9.829       9.523       8.789       7.235       4.391      6.7843E-03
   6    10.00       9.995       9.982       9.943       9.829       9.523       8.789       7.235       4.391      6.7843E-03
   7    10.00       9.995       9.982       9.943       9.829       9.523       8.789       7.235       4.391      6.7843E-03
   8    10.00       9.995       9.982       9.943       9.829       9.523       8.789       7.235       4.391      6.7843E-03
   9    10.00       9.995       9.982       9.943       9.829       9.523       8.789       7.235       4.391      6.7843E-03
  10    10.00       9.995       9.982       9.943       9.829       9.523       8.789       7.235       4.391      6.7843E-03
1
              HEAD IN LAYER   2 AT END OF TIME STEP  35 IN STRESS PERIOD    2
  ---------------------------------------------------------------------------

            1           2           3           4           5           6           7           8           9          10
 ........................................................................................................................
   1    10.00       9.995       9.981       9.938       9.816       9.495       8.739       7.162       4.317      1.1969E-02
   2    10.00       9.995       9.981       9.938       9.816       9.495       8.739       7.162       4.317      1.1969E-02
   3    10.00       9.995       9.981       9.938       9.816       9.495       8.739       7.162       4.317      1.1969E-02
   4    10.00       9.995       9.981       9.938       9.816       9.495       8.739       7.162       4.317      1.1969E-02
   5    10.00       9.995       9.981       9.938       9.816       9.495       8.739       7.162       4.317      1.1969E-02
   6    10.00       9.995       9.981       9.938       9.816       9.495       8.739       7.162       4.317      1.1969E-02
   7    10.00       9.995       9.981       9.938       9.816       9.495       8.739       7.162       4.317      1.1969E-02
   8    10.00       9.995       9.981       9.938       9.816       9.495       8.739       7.162       4.317      1.1969E-02
   9    10.00       9.995       9.981       9.938       9.816       9.495       8.739       7.162       4.317      1.1969E-02
  10    10.00       9.995       9.981       9.938       9.816       9.495       8.739       7.162       4.317      1.1969E-02
1
              HEAD IN LAYER   3 AT END OF TIME STEP  35 IN STRESS PERIOD    2
  ---------------------------------------------------------------------------

            1           2           3           4           5           6           7           8           9          10
 ........................................................................................................................
   1    10.00       9.994       9.979       9.934       9.807       9.476       8.704       7.108       4.257      1.2645E-02
   2    10.00       9.994       9.979       9.934       9.807       9.476       8.704       7.108       4.257      1.2645E-02
   3    10.00       9.994       9.979       9.934       9.807       9.476       8.704       7.108       4.257      1.2645E-02
   4    10.00       9.994       9.979       9.934       9.807       9.476       8.704       7.108       4.257      1.2645E-02
   5    10.00       9.994       9.979       9.934       9.807       9.476       8.704       7.108       4.257      1.2645E-02
   6    10.00       9.994       9.979       9.934       9.807       9.476       8.704       7.108       4.257      1.2645E-02
   7    10.00       9.994       9.979       9.934       9.807       9.476       8.704       7.108       4.257      1.2645E-02
   8    10.00       9.994       9.979       9.934       9.807       9.476       8.704       7.108       4.257      1.2645E-02
   9    10.00       9.994       9.979       9.934       9.807       9.476       8.704       7.108       4.257      1.2645E-02
  10    10.00       9.994       9.979       9.934       9.807       9.476       8.704       7.108       4.257      1.2645E-02
1
              HEAD IN LAYER   4 AT END OF TIME STEP  35 IN STRESS PERIOD    2
  ---------------------------------------------------------------------------

            1           2           3           4           5           6           7           8           9          10
 ........................................................................................................................
   1    10.00       9.994       9.979       9.933       9.803       9.467       8.686       7.081       4.228      1.2646E-02
   2    10.00       9.994       9.979       9.933       9.803       9.467       8.686       7.081       4.228      1.2646E-02
   3    10.00       9.994       9.979       9.933       9.803       9.467       8.686       7.081       4.228      1.2646E-02
   4    10.00       9.994       9.979       9.933       9.803       9.467       8.686       7.081       4.228      1.2646E-02
   5    10.00       9.994       9.979       9.933       9.803       9.467       8.686       7.081       4.228      1.2646E-02
   6    10.00       9.994       9.979       9.933       9.803       9.467       8.686       7.081       4.228      1.2646E-02
   7    10.00       9.994       9.979       9.933       9.803       9.467       8.686       7.081       4.228      1.2646E-02
   8    10.00       9.994       9.979       9.933       9.803       9.467       8.686       7.081       4.228      1.2646E-02
   9    10.00       9.994       9.979       9.933       9.803       9.467       8.686       7.081       4.228      1.2646E-02
  10    10.00       9.994       9.979       9.933       9.803       9.467       8.686       7.081       4.228      1.2646E-02

 HEAD WILL BE SAVED ON UNIT   51 AT END OF TIME STEP   35, STRESS PERIOD    2

 DRAWDOWN WILL BE SAVED ON UNIT   52 AT END OF TIME STEP   35, STRESS PERIOD    2
1
  VOLUMETRIC BUDGET FOR ENTIRE MODEL AT END OF TIME STEP   35, STRESS PERIOD   2
  ------------------------------------------------------------------------------

     CUMULATIVE VOLUMES      L**3       RATES FOR THIS TIME STEP      L**3/T
     ------------------                 ------------------------

           IN:                                      IN:
           ---                                      ---
             STORAGE =      212369.1406               STORAGE =        2198.9775
       CONSTANT HEAD =           0.0000         CONSTANT HEAD =           0.0000
               WELLS =           0.0000                 WELLS =           0.0000
     HEAD DEP BOUNDS =          25.2480       HEAD DEP BOUNDS =           3.2172

            TOTAL IN =      212394.3906              TOTAL IN =        2202.1948

          OUT:                                     OUT:
          ----                                     ----
             STORAGE =           0.0000               STORAGE =           0.0000
       CONSTANT HEAD =           0.0000         CONSTANT HEAD =           0.0000
               WELLS =           0.0000                 WELLS =           0.0000
     HEAD DEP BOUNDS =      212394.6875       HEAD DEP BOUNDS =        2202.2290

           TOTAL OUT =      212394.6875             TOTAL OUT =        2202.2290

            IN - OUT =          -0.2969              IN - OUT =      -3.4180E-02

 PERCENT DISCREPANCY =          -0.00     PERCENT DISCREPANCY =          -0.00






         TIME SUMMARY AT END OF TIME STEP   35 IN STRESS PERIOD    2
                    SECONDS     MINUTES      HOURS       DAYS        YEARS
                    -----------------------------------------------------------
   TIME STEP LENGTH  86400.      1440.0      24.000      1.0000     2.73785E-03
 STRESS PERIOD TIME 3.02400E+06  50400.      840.00      35.000     9.58248E-02
         TOTAL TIME 3.11040E+06  51840.      864.00      36.000     9.85626E-02
1
 
 SOLVING FOR HEAD 

 OUTPUT CONTROL FOR STRESS PERIOD    2   TIME STEP   36
    SAVE HEAD FOR ALL LAYERS
    SAVE DRAWDOWN FOR ALL LAYERS
    SAVE BUDGET
    PRINT HEAD FOR ALL LAYERS
    PRINT BUDGET
 UBDSV1 SAVING "         STORAGE" ON UNIT  53 AT TIME STEP 36, STRESS PERIOD   2
 UBDSV2 SAVING "   CONSTANT HEAD" ON UNIT  53 AT TIME STEP 36, STRESS PERIOD   2
 UBDSV1 SAVING "FLOW RIGHT FACE " ON UNIT  53 AT TIME STEP 36, STRESS PERIOD   2
 UBDSV1 SAVING "FLOW FRONT FACE " ON UNIT  53 AT TIME STEP 36, STRESS PERIOD   2
 UBDSV1 SAVING "FLOW LOWER FACE " ON UNIT  53 AT TIME STEP 36, STRESS PERIOD   2
1
              HEAD IN LAYER   1 AT END OF TIME STEP  36 IN STRESS PERIOD    2
  ---------------------------------------------------------------------------

            1           2           3           4           5           6           7           8           9          10
 ........................................................................................................................
   1    10.00       9.995       9.981       9.938       9.817       9.498       8.745       7.172       4.334      6.6861E-03
   2    10.00       9.995       9.981       9.938       9.817       9.498       8.745       7.172       4.334      6.6861E-03
   3    10.00       9.995       9.981       9.938       9.817       9.498       8.745       7.172       4.334      6.6861E-03
   4    10.00       9.995       9.981       9.938       9.817       9.498       8.745       7.172       4.334      6.6861E-03
   5    10.00       9.995       9.981       9.938       9.817       9.498       8.745       7.172       4.334      6.6861E-03
   6    10.00       9.995       9.981       9.938       9.817       9.498       8.745       7.172       4.334      6.6861E-03
   7    10.00       9.995       9.981       9.938       9.817       9.498       8.745       7.172       4.334      6.6861E-03
   8    10.00       9.995       9.981       9.938       9.817       9.498       8.745       7.172       4.334      6.6861E-03
   9    10.00       9.995       9.981       9.938       9.817       9.498       8.745       7.172       4.334      6.6861E-03
  10    10.00       9.995       9.981       9.938       9.817       9.498       8.745       7.172       4.334      6.6861E-03
1
              HEAD IN LAYER   2 AT END OF TIME STEP  36 IN STRESS PERIOD    2
  ---------------------------------------------------------------------------

            1           2           3           4           5           6           7           8           9          10
 ........................................................................................................................
   1    10.00       9.994       9.979       9.933       9.804       9.470       8.695       7.101       4.263      1.1816E-02
   2    10.00       9.994       9.979       9.933       9.804       9.470       8.695       7.101       4.263      1.1816E-02
   3    10.00       9.994       9.979       9.933       9.804       9.470       8.695       7.101       4.263      1.1816E-02
   4    10.00       9.994       9.979       9.933       9.804       9.470       8.695       7.101       4.263      1.1816E-02
   5    10.00       9.994       9.979       9.933       9.804       9.470       8.695       7.101       4.263      1.1816E-02
   6    10.00       9.994       9.979       9.933       9.804       9.470       8.695       7.101       4.263      1.1816E-02
   7    10.00       9.994       9.979       9.933       9.804       9.470       8.695       7.101       4.263      1.1816E-02
   8    10.00       9.994       9.979       9.933       9.804       9.470       8.695       7.101       4.263      1.1816E-02
   9    10.00       9.994       9.979       9.933       9.804       9.470       8.695       7.101       4.263      1.1816E-02
  10    10.00       9.994       9.979       9.933       9.804       9.470       8.695       7.101       4.263      1.1816E-02
1
              HEAD IN LAYER   3 AT END OF TIME STEP  36 IN STRESS PERIOD    2
  ---------------------------------------------------------------------------

            1           2           3           4           5           6           7           8           9          10
 ........................................................................................................................
   1    10.00       9.994       9.977       9.929       9.795       9.451       8.660       7.048       4.205      1.2488E-02
   2    10.00       9.994       9.977       9.929       9.795       9.451       8.660       7.048       4.205      1.2488E-02
   3    10.00       9.994       9.977       9.929       9.795       9.451       8.660       7.048       4.205      1.2488E-02
   4    10.00       9.994       9.977       9.929       9.795       9.451       8.660       7.048       4.205      1.2488E-02
   5    10.00       9.994       9.977       9.929       9.795       9.451       8.660       7.048       4.205      1.2488E-02
   6    10.00       9.994       9.977       9.929       9.795       9.451       8.660       7.048       4.205      1.2488E-02
   7    10.00       9.994       9.977       9.929       9.795       9.451       8.660       7.048       4.205      1.2488E-02
   8    10.00       9.994       9.977       9.929       9.795       9.451       8.660       7.048       4.205      1.2488E-02
   9    10.00       9.994       9.977       9.929       9.795       9.451       8.660       7.048       4.205      1.2488E-02
  10    10.00       9.994       9.977       9.929       9.795       9.451       8.660       7.048       4.205      1.2488E-02
1
              HEAD IN LAYER   4 AT END OF TIME STEP  36 IN STRESS PERIOD    2
  ---------------------------------------------------------------------------

            1           2           3           4           5           6           7           8           9          10
 ........................................................................................................................
   1    10.00       9.993       9.977       9.927       9.790       9.441       8.642       7.022       4.176      1.2492E-02
   2    10.00       9.993       9.977       9.927       9.790       9.441       8.642       7.022       4.176      1.2492E-02
   3    10.00       9.993       9.977       9.927       9.790       9.441       8.642       7.022       4.176      1.2492E-02
   4    10.00       9.993       9.977       9.927       9.790       9.441       8.642       7.022       4.176      1.2492E-02
   5    10.00       9.993       9.977       9.927       9.790       9.441       8.642       7.022       4.176      1.2492E-02
   6    10.00       9.993       9.977       9.927       9.790       9.441       8.642       7.022       4.176      1.2492E-02
   7    10.00       9.993       9.977       9.927       9.790       9.441       8.642       7.022       4.176      1.2492E-02
   8    10.00       9.993       9.977       9.927       9.790       9.441       8.642       7.022       4.176      1.2492E-02
   9    10.00       9.993       9.977       9.927       9.790       9.441       8.642       7.022       4.176      1.2492E-02
  10    10.00       9.993       9.977       9.927       9.790       9.441       8.642       7.022       4.176      1.2492E-02

 HEAD WILL BE SAVED ON UNIT   51 AT END OF TIME STEP   36, STRESS PERIOD    2

 DRAWDOWN WILL BE SAVED ON UNIT   52 AT END OF TIME STEP   36, STRESS PERIOD    2
1
  VOLUMETRIC BUDGET FOR ENTIRE MODEL AT END OF TIME STEP   36, STRESS PERIOD   2
  ------------------------------------------------------------------------------

     CUMULATIVE VOLUMES      L**3       RATES FOR THIS TIME STEP      L**3/T
     ------------------                 ------------------------

           IN:                                      IN:
           ---                                      ---
             STORAGE =      214539.6562               STORAGE =        2170.5232
       CONSTANT HEAD =           0.0000         CONSTANT HEAD =           0.0000
               WELLS =           0.0000                 WELLS =           0.0000
     HEAD DEP BOUNDS =          28.8786       HEAD DEP BOUNDS =           3.6306

            TOTAL IN =      214568.5312              TOTAL IN =        2174.1538

          OUT:                                     OUT:
          ----                                     ----
             STORAGE =           0.0000               STORAGE =           0.0000
       CONSTANT HEAD =           0.0000         CONSTANT HEAD =           0.0000
               WELLS =           0.0000                 WELLS =           0.0000
     HEAD DEP BOUNDS =      214568.8125       HEAD DEP BOUNDS =        2174.1301

           TOTAL OUT =      214568.8125             TOTAL OUT =        2174.1301

            IN - OUT =          -0.2812              IN - OUT =       2.3682E-02

 PERCENT DISCREPANCY =          -0.00     PERCENT DISCREPANCY =           0.00






         TIME SUMMARY AT END OF TIME STEP   36 IN STRESS PERIOD    2
                    SECONDS     MINUTES      HOURS       DAYS        YEARS
                    -----------------------------------------------------------
   TIME STEP LENGTH  86400.      1440.0      24.000      1.0000     2.73785E-03
 STRESS PERIOD TIME 3.11040E+06  51840.      864.00      36.000     9.85626E-02
         TOTAL TIME 3.19680E+06  53280.      888.00      37.000     0.10130    
1
 
 SOLVING FOR HEAD 

 OUTPUT CONTROL FOR STRESS PERIOD    2   TIME STEP   37
    SAVE HEAD FOR ALL LAYERS
    SAVE DRAWDOWN FOR ALL LAYERS
    SAVE BUDGET
    PRINT HEAD FOR ALL LAYERS
    PRINT BUDGET
 UBDSV1 SAVING "         STORAGE" ON UNIT  53 AT TIME STEP 37, STRESS PERIOD   2
 UBDSV2 SAVING "   CONSTANT HEAD" ON UNIT  53 AT TIME STEP 37, STRESS PERIOD   2
 UBDSV1 SAVING "FLOW RIGHT FACE " ON UNIT  53 AT TIME STEP 37, STRESS PERIOD   2
 UBDSV1 SAVING "FLOW FRONT FACE " ON UNIT  53 AT TIME STEP 37, STRESS PERIOD   2
 UBDSV1 SAVING "FLOW LOWER FACE " ON UNIT  53 AT TIME STEP 37, STRESS PERIOD   2
1
              HEAD IN LAYER   1 AT END OF TIME STEP  37 IN STRESS PERIOD    2
  ---------------------------------------------------------------------------

            1           2           3           4           5           6           7           8           9          10
 ........................................................................................................................
   1    10.00       9.994       9.979       9.933       9.805       9.473       8.700       7.111       4.279      6.5918E-03
   2    10.00       9.994       9.979       9.933       9.805       9.473       8.700       7.111       4.279      6.5918E-03
   3    10.00       9.994       9.979       9.933       9.805       9.473       8.700       7.111       4.279      6.5918E-03
   4    10.00       9.994       9.979       9.933       9.805       9.473       8.700       7.111       4.279      6.5918E-03
   5    10.00       9.994       9.979       9.933       9.805       9.473       8.700       7.111       4.279      6.5918E-03
   6    10.00       9.994       9.979       9.933       9.805       9.473       8.700       7.111       4.279      6.5918E-03
   7    10.00       9.994       9.979       9.933       9.805       9.473       8.700       7.111       4.279      6.5918E-03
   8    10.00       9.994       9.979       9.933       9.805       9.473       8.700       7.111       4.279      6.5918E-03
   9    10.00       9.994       9.979       9.933       9.805       9.473       8.700       7.111       4.279      6.5918E-03
  10    10.00       9.994       9.979       9.933       9.805       9.473       8.700       7.111       4.279      6.5918E-03
1
              HEAD IN LAYER   2 AT END OF TIME STEP  37 IN STRESS PERIOD    2
  ---------------------------------------------------------------------------

            1           2           3           4           5           6           7           8           9          10
 ........................................................................................................................
   1    10.00       9.993       9.977       9.928       9.791       9.445       8.651       7.041       4.210      1.1669E-02
   2    10.00       9.993       9.977       9.928       9.791       9.445       8.651       7.041       4.210      1.1669E-02
   3    10.00       9.993       9.977       9.928       9.791       9.445       8.651       7.041       4.210      1.1669E-02
   4    10.00       9.993       9.977       9.928       9.791       9.445       8.651       7.041       4.210      1.1669E-02
   5    10.00       9.993       9.977       9.928       9.791       9.445       8.651       7.041       4.210      1.1669E-02
   6    10.00       9.993       9.977       9.928       9.791       9.445       8.651       7.041       4.210      1.1669E-02
   7    10.00       9.993       9.977       9.928       9.791       9.445       8.651       7.041       4.210      1.1669E-02
   8    10.00       9.993       9.977       9.928       9.791       9.445       8.651       7.041       4.210      1.1669E-02
   9    10.00       9.993       9.977       9.928       9.791       9.445       8.651       7.041       4.210      1.1669E-02
  10    10.00       9.993       9.977       9.928       9.791       9.445       8.651       7.041       4.210      1.1669E-02
1
              HEAD IN LAYER   3 AT END OF TIME STEP  37 IN STRESS PERIOD    2
  ---------------------------------------------------------------------------

            1           2           3           4           5           6           7           8           9          10
 ........................................................................................................................
   1    10.00       9.993       9.975       9.924       9.782       9.425       8.616       6.989       4.154      1.2337E-02
   2    10.00       9.993       9.975       9.924       9.782       9.425       8.616       6.989       4.154      1.2337E-02
   3    10.00       9.993       9.975       9.924       9.782       9.425       8.616       6.989       4.154      1.2337E-02
   4    10.00       9.993       9.975       9.924       9.782       9.425       8.616       6.989       4.154      1.2337E-02
   5    10.00       9.993       9.975       9.924       9.782       9.425       8.616       6.989       4.154      1.2337E-02
   6    10.00       9.993       9.975       9.924       9.782       9.425       8.616       6.989       4.154      1.2337E-02
   7    10.00       9.993       9.975       9.924       9.782       9.425       8.616       6.989       4.154      1.2337E-02
   8    10.00       9.993       9.975       9.924       9.782       9.425       8.616       6.989       4.154      1.2337E-02
   9    10.00       9.993       9.975       9.924       9.782       9.425       8.616       6.989       4.154      1.2337E-02
  10    10.00       9.993       9.975       9.924       9.782       9.425       8.616       6.989       4.154      1.2337E-02
1
              HEAD IN LAYER   4 AT END OF TIME STEP  37 IN STRESS PERIOD    2
  ---------------------------------------------------------------------------

            1           2           3           4           5           6           7           8           9          10
 ........................................................................................................................
   1    10.00       9.993       9.975       9.922       9.778       9.416       8.598       6.964       4.126      1.2342E-02
   2    10.00       9.993       9.975       9.922       9.778       9.416       8.598       6.964       4.126      1.2342E-02
   3    10.00       9.993       9.975       9.922       9.778       9.416       8.598       6.964       4.126      1.2342E-02
   4    10.00       9.993       9.975       9.922       9.778       9.416       8.598       6.964       4.126      1.2342E-02
   5    10.00       9.993       9.975       9.922       9.778       9.416       8.598       6.964       4.126      1.2342E-02
   6    10.00       9.993       9.975       9.922       9.778       9.416       8.598       6.964       4.126      1.2342E-02
   7    10.00       9.993       9.975       9.922       9.778       9.416       8.598       6.964       4.126      1.2342E-02
   8    10.00       9.993       9.975       9.922       9.778       9.416       8.598       6.964       4.126      1.2342E-02
   9    10.00       9.993       9.975       9.922       9.778       9.416       8.598       6.964       4.126      1.2342E-02
  10    10.00       9.993       9.975       9.922       9.778       9.416       8.598       6.964       4.126      1.2342E-02

 HEAD WILL BE SAVED ON UNIT   51 AT END OF TIME STEP   37, STRESS PERIOD    2

 DRAWDOWN WILL BE SAVED ON UNIT   52 AT END OF TIME STEP   37, STRESS PERIOD    2
1
  VOLUMETRIC BUDGET FOR ENTIRE MODEL AT END OF TIME STEP   37, STRESS PERIOD   2
  ------------------------------------------------------------------------------

     CUMULATIVE VOLUMES      L**3       RATES FOR THIS TIME STEP      L**3/T
     ------------------                 ------------------------

           IN:                                      IN:
           ---                                      ---
             STORAGE =      216682.7031               STORAGE =        2143.0427
       CONSTANT HEAD =           0.0000         CONSTANT HEAD =           0.0000
               WELLS =           0.0000                 WELLS =           0.0000
     HEAD DEP BOUNDS =          32.8800       HEAD DEP BOUNDS =           4.0014

            TOTAL IN =      216715.5781              TOTAL IN =        2147.0442

          OUT:                                     OUT:
          ----                                     ----
             STORAGE =           0.0000               STORAGE =           0.0000
       CONSTANT HEAD =           0.0000         CONSTANT HEAD =           0.0000
               WELLS =           0.0000                 WELLS =           0.0000
     HEAD DEP BOUNDS =      216715.8438       HEAD DEP BOUNDS =        2147.0251

           TOTAL OUT =      216715.8438             TOTAL OUT =        2147.0251

            IN - OUT =          -0.2656              IN - OUT =       1.9043E-02

 PERCENT DISCREPANCY =          -0.00     PERCENT DISCREPANCY =           0.00






         TIME SUMMARY AT END OF TIME STEP   37 IN STRESS PERIOD    2
                    SECONDS     MINUTES      HOURS       DAYS        YEARS
                    -----------------------------------------------------------
   TIME STEP LENGTH  86400.      1440.0      24.000      1.0000     2.73785E-03
 STRESS PERIOD TIME 3.19680E+06  53280.      888.00      37.000     0.10130    
         TOTAL TIME 3.28320E+06  54720.      912.00      38.000     0.10404    
1
 
 SOLVING FOR HEAD 

 OUTPUT CONTROL FOR STRESS PERIOD    2   TIME STEP   38
    SAVE HEAD FOR ALL LAYERS
    SAVE DRAWDOWN FOR ALL LAYERS
    SAVE BUDGET
    PRINT HEAD FOR ALL LAYERS
    PRINT BUDGET
 UBDSV1 SAVING "         STORAGE" ON UNIT  53 AT TIME STEP 38, STRESS PERIOD   2
 UBDSV2 SAVING "   CONSTANT HEAD" ON UNIT  53 AT TIME STEP 38, STRESS PERIOD   2
 UBDSV1 SAVING "FLOW RIGHT FACE " ON UNIT  53 AT TIME STEP 38, STRESS PERIOD   2
 UBDSV1 SAVING "FLOW FRONT FACE " ON UNIT  53 AT TIME STEP 38, STRESS PERIOD   2
 UBDSV1 SAVING "FLOW LOWER FACE " ON UNIT  53 AT TIME STEP 38, STRESS PERIOD   2
1
              HEAD IN LAYER   1 AT END OF TIME STEP  38 IN STRESS PERIOD    2
  ---------------------------------------------------------------------------

            1           2           3           4           5           6           7           8           9          10
 ........................................................................................................................
   1    10.00       9.993       9.977       9.928       9.792       9.447       8.656       7.051       4.226      6.5008E-03
   2    10.00       9.993       9.977       9.928       9.792       9.447       8.656       7.051       4.226      6.5008E-03
   3    10.00       9.993       9.977       9.928       9.792       9.447       8.656       7.051       4.226      6.5008E-03
   4    10.00       9.993       9.977       9.928       9.792       9.447       8.656       7.051       4.226      6.5008E-03
   5    10.00       9.993       9.977       9.928       9.792       9.447       8.656       7.051       4.226      6.5008E-03
   6    10.00       9.993       9.977       9.928       9.792       9.447       8.656       7.051       4.226      6.5008E-03
   7    10.00       9.993       9.977       9.928       9.792       9.447       8.656       7.051       4.226      6.5008E-03
   8    10.00       9.993       9.977       9.928       9.792       9.447       8.656       7.051       4.226      6.5008E-03
   9    10.00       9.993       9.977       9.928       9.792       9.447       8.656       7.051       4.226      6.5008E-03
  10    10.00       9.993       9.977       9.928       9.792       9.447       8.656       7.051       4.226      6.5008E-03
1
              HEAD IN LAYER   2 AT END OF TIME STEP  38 IN STRESS PERIOD    2
  ---------------------------------------------------------------------------

            1           2           3           4           5           6           7           8           9          10
 ........................................................................................................................
   1    10.00       9.993       9.975       9.922       9.779       9.419       8.607       6.983       4.159      1.1527E-02
   2    10.00       9.993       9.975       9.922       9.779       9.419       8.607       6.983       4.159      1.1527E-02
   3    10.00       9.993       9.975       9.922       9.779       9.419       8.607       6.983       4.159      1.1527E-02
   4    10.00       9.993       9.975       9.922       9.779       9.419       8.607       6.983       4.159      1.1527E-02
   5    10.00       9.993       9.975       9.922       9.779       9.419       8.607       6.983       4.159      1.1527E-02
   6    10.00       9.993       9.975       9.922       9.779       9.419       8.607       6.983       4.159      1.1527E-02
   7    10.00       9.993       9.975       9.922       9.779       9.419       8.607       6.983       4.159      1.1527E-02
   8    10.00       9.993       9.975       9.922       9.779       9.419       8.607       6.983       4.159      1.1527E-02
   9    10.00       9.993       9.975       9.922       9.779       9.419       8.607       6.983       4.159      1.1527E-02
  10    10.00       9.993       9.975       9.922       9.779       9.419       8.607       6.983       4.159      1.1527E-02
1
              HEAD IN LAYER   3 AT END OF TIME STEP  38 IN STRESS PERIOD    2
  ---------------------------------------------------------------------------

            1           2           3           4           5           6           7           8           9          10
 ........................................................................................................................
   1    10.00       9.992       9.973       9.918       9.769       9.399       8.572       6.932       4.105      1.2191E-02
   2    10.00       9.992       9.973       9.918       9.769       9.399       8.572       6.932       4.105      1.2191E-02
   3    10.00       9.992       9.973       9.918       9.769       9.399       8.572       6.932       4.105      1.2191E-02
   4    10.00       9.992       9.973       9.918       9.769       9.399       8.572       6.932       4.105      1.2191E-02
   5    10.00       9.992       9.973       9.918       9.769       9.399       8.572       6.932       4.105      1.2191E-02
   6    10.00       9.992       9.973       9.918       9.769       9.399       8.572       6.932       4.105      1.2191E-02
   7    10.00       9.992       9.973       9.918       9.769       9.399       8.572       6.932       4.105      1.2191E-02
   8    10.00       9.992       9.973       9.918       9.769       9.399       8.572       6.932       4.105      1.2191E-02
   9    10.00       9.992       9.973       9.918       9.769       9.399       8.572       6.932       4.105      1.2191E-02
  10    10.00       9.992       9.973       9.918       9.769       9.399       8.572       6.932       4.105      1.2191E-02
1
              HEAD IN LAYER   4 AT END OF TIME STEP  38 IN STRESS PERIOD    2
  ---------------------------------------------------------------------------

            1           2           3           4           5           6           7           8           9          10
 ........................................................................................................................
   1    10.00       9.992       9.972       9.916       9.764       9.390       8.555       6.907       4.078      1.2198E-02
   2    10.00       9.992       9.972       9.916       9.764       9.390       8.555       6.907       4.078      1.2198E-02
   3    10.00       9.992       9.972       9.916       9.764       9.390       8.555       6.907       4.078      1.2198E-02
   4    10.00       9.992       9.972       9.916       9.764       9.390       8.555       6.907       4.078      1.2198E-02
   5    10.00       9.992       9.972       9.916       9.764       9.390       8.555       6.907       4.078      1.2198E-02
   6    10.00       9.992       9.972       9.916       9.764       9.390       8.555       6.907       4.078      1.2198E-02
   7    10.00       9.992       9.972       9.916       9.764       9.390       8.555       6.907       4.078      1.2198E-02
   8    10.00       9.992       9.972       9.916       9.764       9.390       8.555       6.907       4.078      1.2198E-02
   9    10.00       9.992       9.972       9.916       9.764       9.390       8.555       6.907       4.078      1.2198E-02
  10    10.00       9.992       9.972       9.916       9.764       9.390       8.555       6.907       4.078      1.2198E-02

 HEAD WILL BE SAVED ON UNIT   51 AT END OF TIME STEP   38, STRESS PERIOD    2

 DRAWDOWN WILL BE SAVED ON UNIT   52 AT END OF TIME STEP   38, STRESS PERIOD    2
1
  VOLUMETRIC BUDGET FOR ENTIRE MODEL AT END OF TIME STEP   38, STRESS PERIOD   2
  ------------------------------------------------------------------------------

     CUMULATIVE VOLUMES      L**3       RATES FOR THIS TIME STEP      L**3/T
     ------------------                 ------------------------

           IN:                                      IN:
           ---                                      ---
             STORAGE =      218799.1406               STORAGE =        2116.4355
       CONSTANT HEAD =           0.0000         CONSTANT HEAD =           0.0000
               WELLS =           0.0000                 WELLS =           0.0000
     HEAD DEP BOUNDS =          37.2784       HEAD DEP BOUNDS =           4.3985

            TOTAL IN =      218836.4219              TOTAL IN =        2120.8340

          OUT:                                     OUT:
          ----                                     ----
             STORAGE =           0.0000               STORAGE =           0.0000
       CONSTANT HEAD =           0.0000         CONSTANT HEAD =           0.0000
               WELLS =           0.0000                 WELLS =           0.0000
     HEAD DEP BOUNDS =      218836.6875       HEAD DEP BOUNDS =        2120.8440

           TOTAL OUT =      218836.6875             TOTAL OUT =        2120.8440

            IN - OUT =          -0.2656              IN - OUT =      -1.0010E-02

 PERCENT DISCREPANCY =          -0.00     PERCENT DISCREPANCY =          -0.00






         TIME SUMMARY AT END OF TIME STEP   38 IN STRESS PERIOD    2
                    SECONDS     MINUTES      HOURS       DAYS        YEARS
                    -----------------------------------------------------------
   TIME STEP LENGTH  86400.      1440.0      24.000      1.0000     2.73785E-03
 STRESS PERIOD TIME 3.28320E+06  54720.      912.00      38.000     0.10404    
         TOTAL TIME 3.36960E+06  56160.      936.00      39.000     0.10678    
1
 
 SOLVING FOR HEAD 

 OUTPUT CONTROL FOR STRESS PERIOD    2   TIME STEP   39
    SAVE HEAD FOR ALL LAYERS
    SAVE DRAWDOWN FOR ALL LAYERS
    SAVE BUDGET
    PRINT HEAD FOR ALL LAYERS
    PRINT BUDGET
 UBDSV1 SAVING "         STORAGE" ON UNIT  53 AT TIME STEP 39, STRESS PERIOD   2
 UBDSV2 SAVING "   CONSTANT HEAD" ON UNIT  53 AT TIME STEP 39, STRESS PERIOD   2
 UBDSV1 SAVING "FLOW RIGHT FACE " ON UNIT  53 AT TIME STEP 39, STRESS PERIOD   2
 UBDSV1 SAVING "FLOW FRONT FACE " ON UNIT  53 AT TIME STEP 39, STRESS PERIOD   2
 UBDSV1 SAVING "FLOW LOWER FACE " ON UNIT  53 AT TIME STEP 39, STRESS PERIOD   2
1
              HEAD IN LAYER   1 AT END OF TIME STEP  39 IN STRESS PERIOD    2
  ---------------------------------------------------------------------------

            1           2           3           4           5           6           7           8           9          10
 ........................................................................................................................
   1    10.00       9.993       9.975       9.923       9.780       9.422       8.613       6.993       4.175      6.4131E-03
   2    10.00       9.993       9.975       9.923       9.780       9.422       8.613       6.993       4.175      6.4131E-03
   3    10.00       9.993       9.975       9.923       9.780       9.422       8.613       6.993       4.175      6.4131E-03
   4    10.00       9.993       9.975       9.923       9.780       9.422       8.613       6.993       4.175      6.4131E-03
   5    10.00       9.993       9.975       9.923       9.780       9.422       8.613       6.993       4.175      6.4131E-03
   6    10.00       9.993       9.975       9.923       9.780       9.422       8.613       6.993       4.175      6.4131E-03
   7    10.00       9.993       9.975       9.923       9.780       9.422       8.613       6.993       4.175      6.4131E-03
   8    10.00       9.993       9.975       9.923       9.780       9.422       8.613       6.993       4.175      6.4131E-03
   9    10.00       9.993       9.975       9.923       9.780       9.422       8.613       6.993       4.175      6.4131E-03
  10    10.00       9.993       9.975       9.923       9.780       9.422       8.613       6.993       4.175      6.4131E-03
1
              HEAD IN LAYER   2 AT END OF TIME STEP  39 IN STRESS PERIOD    2
  ---------------------------------------------------------------------------

            1           2           3           4           5           6           7           8           9          10
 ........................................................................................................................
   1    10.00       9.992       9.972       9.916       9.766       9.393       8.563       6.925       4.110      1.1390E-02
   2    10.00       9.992       9.972       9.916       9.766       9.393       8.563       6.925       4.110      1.1390E-02
   3    10.00       9.992       9.972       9.916       9.766       9.393       8.563       6.925       4.110      1.1390E-02
   4    10.00       9.992       9.972       9.916       9.766       9.393       8.563       6.925       4.110      1.1390E-02
   5    10.00       9.992       9.972       9.916       9.766       9.393       8.563       6.925       4.110      1.1390E-02
   6    10.00       9.992       9.972       9.916       9.766       9.393       8.563       6.925       4.110      1.1390E-02
   7    10.00       9.992       9.972       9.916       9.766       9.393       8.563       6.925       4.110      1.1390E-02
   8    10.00       9.992       9.972       9.916       9.766       9.393       8.563       6.925       4.110      1.1390E-02
   9    10.00       9.992       9.972       9.916       9.766       9.393       8.563       6.925       4.110      1.1390E-02
  10    10.00       9.992       9.972       9.916       9.766       9.393       8.563       6.925       4.110      1.1390E-02
1
              HEAD IN LAYER   3 AT END OF TIME STEP  39 IN STRESS PERIOD    2
  ---------------------------------------------------------------------------

            1           2           3           4           5           6           7           8           9          10
 ........................................................................................................................
   1    10.00       9.992       9.971       9.912       9.756       9.373       8.529       6.876       4.058      1.2050E-02
   2    10.00       9.992       9.971       9.912       9.756       9.373       8.529       6.876       4.058      1.2050E-02
   3    10.00       9.992       9.971       9.912       9.756       9.373       8.529       6.876       4.058      1.2050E-02
   4    10.00       9.992       9.971       9.912       9.756       9.373       8.529       6.876       4.058      1.2050E-02
   5    10.00       9.992       9.971       9.912       9.756       9.373       8.529       6.876       4.058      1.2050E-02
   6    10.00       9.992       9.971       9.912       9.756       9.373       8.529       6.876       4.058      1.2050E-02
   7    10.00       9.992       9.971       9.912       9.756       9.373       8.529       6.876       4.058      1.2050E-02
   8    10.00       9.992       9.971       9.912       9.756       9.373       8.529       6.876       4.058      1.2050E-02
   9    10.00       9.992       9.971       9.912       9.756       9.373       8.529       6.876       4.058      1.2050E-02
  10    10.00       9.992       9.971       9.912       9.756       9.373       8.529       6.876       4.058      1.2050E-02
1
              HEAD IN LAYER   4 AT END OF TIME STEP  39 IN STRESS PERIOD    2
  ---------------------------------------------------------------------------

            1           2           3           4           5           6           7           8           9          10
 ........................................................................................................................
   1    10.00       9.991       9.970       9.910       9.751       9.363       8.512       6.851       4.032      1.2058E-02
   2    10.00       9.991       9.970       9.910       9.751       9.363       8.512       6.851       4.032      1.2058E-02
   3    10.00       9.991       9.970       9.910       9.751       9.363       8.512       6.851       4.032      1.2058E-02
   4    10.00       9.991       9.970       9.910       9.751       9.363       8.512       6.851       4.032      1.2058E-02
   5    10.00       9.991       9.970       9.910       9.751       9.363       8.512       6.851       4.032      1.2058E-02
   6    10.00       9.991       9.970       9.910       9.751       9.363       8.512       6.851       4.032      1.2058E-02
   7    10.00       9.991       9.970       9.910       9.751       9.363       8.512       6.851       4.032      1.2058E-02
   8    10.00       9.991       9.970       9.910       9.751       9.363       8.512       6.851       4.032      1.2058E-02
   9    10.00       9.991       9.970       9.910       9.751       9.363       8.512       6.851       4.032      1.2058E-02
  10    10.00       9.991       9.970       9.910       9.751       9.363       8.512       6.851       4.032      1.2058E-02

 HEAD WILL BE SAVED ON UNIT   51 AT END OF TIME STEP   39, STRESS PERIOD    2

 DRAWDOWN WILL BE SAVED ON UNIT   52 AT END OF TIME STEP   39, STRESS PERIOD    2
1
  VOLUMETRIC BUDGET FOR ENTIRE MODEL AT END OF TIME STEP   39, STRESS PERIOD   2
  ------------------------------------------------------------------------------

     CUMULATIVE VOLUMES      L**3       RATES FOR THIS TIME STEP      L**3/T
     ------------------                 ------------------------

           IN:                                      IN:
           ---                                      ---
             STORAGE =      220889.8438               STORAGE =        2090.7058
       CONSTANT HEAD =           0.0000         CONSTANT HEAD =           0.0000
               WELLS =           0.0000                 WELLS =           0.0000
     HEAD DEP BOUNDS =          42.1007       HEAD DEP BOUNDS =           4.8222

            TOTAL IN =      220931.9375              TOTAL IN =        2095.5281

          OUT:                                     OUT:
          ----                                     ----
             STORAGE =           0.0000               STORAGE =           0.0000
       CONSTANT HEAD =           0.0000         CONSTANT HEAD =           0.0000
               WELLS =           0.0000                 WELLS =           0.0000
     HEAD DEP BOUNDS =      220932.2344       HEAD DEP BOUNDS =        2095.5518

           TOTAL OUT =      220932.2344             TOTAL OUT =        2095.5518

            IN - OUT =          -0.2969              IN - OUT =      -2.3682E-02

 PERCENT DISCREPANCY =          -0.00     PERCENT DISCREPANCY =          -0.00






         TIME SUMMARY AT END OF TIME STEP   39 IN STRESS PERIOD    2
                    SECONDS     MINUTES      HOURS       DAYS        YEARS
                    -----------------------------------------------------------
   TIME STEP LENGTH  86400.      1440.0      24.000      1.0000     2.73785E-03
 STRESS PERIOD TIME 3.36960E+06  56160.      936.00      39.000     0.10678    
         TOTAL TIME 3.45600E+06  57600.      960.00      40.000     0.10951    
1
 
 SOLVING FOR HEAD 

 OUTPUT CONTROL FOR STRESS PERIOD    2   TIME STEP   40
    SAVE HEAD FOR ALL LAYERS
    SAVE DRAWDOWN FOR ALL LAYERS
    SAVE BUDGET
    PRINT HEAD FOR ALL LAYERS
    PRINT BUDGET
 UBDSV1 SAVING "         STORAGE" ON UNIT  53 AT TIME STEP 40, STRESS PERIOD   2
 UBDSV2 SAVING "   CONSTANT HEAD" ON UNIT  53 AT TIME STEP 40, STRESS PERIOD   2
 UBDSV1 SAVING "FLOW RIGHT FACE " ON UNIT  53 AT TIME STEP 40, STRESS PERIOD   2
 UBDSV1 SAVING "FLOW FRONT FACE " ON UNIT  53 AT TIME STEP 40, STRESS PERIOD   2
 UBDSV1 SAVING "FLOW LOWER FACE " ON UNIT  53 AT TIME STEP 40, STRESS PERIOD   2
1
              HEAD IN LAYER   1 AT END OF TIME STEP  40 IN STRESS PERIOD    2
  ---------------------------------------------------------------------------

            1           2           3           4           5           6           7           8           9          10
 ........................................................................................................................
   1    10.00       9.992       9.973       9.917       9.767       9.396       8.569       6.935       4.125      6.3285E-03
   2    10.00       9.992       9.973       9.917       9.767       9.396       8.569       6.935       4.125      6.3285E-03
   3    10.00       9.992       9.973       9.917       9.767       9.396       8.569       6.935       4.125      6.3285E-03
   4    10.00       9.992       9.973       9.917       9.767       9.396       8.569       6.935       4.125      6.3285E-03
   5    10.00       9.992       9.973       9.917       9.767       9.396       8.569       6.935       4.125      6.3285E-03
   6    10.00       9.992       9.973       9.917       9.767       9.396       8.569       6.935       4.125      6.3285E-03
   7    10.00       9.992       9.973       9.917       9.767       9.396       8.569       6.935       4.125      6.3285E-03
   8    10.00       9.992       9.973       9.917       9.767       9.396       8.569       6.935       4.125      6.3285E-03
   9    10.00       9.992       9.973       9.917       9.767       9.396       8.569       6.935       4.125      6.3285E-03
  10    10.00       9.992       9.973       9.917       9.767       9.396       8.569       6.935       4.125      6.3285E-03
1
              HEAD IN LAYER   2 AT END OF TIME STEP  40 IN STRESS PERIOD    2
  ---------------------------------------------------------------------------

            1           2           3           4           5           6           7           8           9          10
 ........................................................................................................................
   1    10.00       9.991       9.970       9.911       9.752       9.367       8.520       6.869       4.063      1.1257E-02
   2    10.00       9.991       9.970       9.911       9.752       9.367       8.520       6.869       4.063      1.1257E-02
   3    10.00       9.991       9.970       9.911       9.752       9.367       8.520       6.869       4.063      1.1257E-02
   4    10.00       9.991       9.970       9.911       9.752       9.367       8.520       6.869       4.063      1.1257E-02
   5    10.00       9.991       9.970       9.911       9.752       9.367       8.520       6.869       4.063      1.1257E-02
   6    10.00       9.991       9.970       9.911       9.752       9.367       8.520       6.869       4.063      1.1257E-02
   7    10.00       9.991       9.970       9.911       9.752       9.367       8.520       6.869       4.063      1.1257E-02
   8    10.00       9.991       9.970       9.911       9.752       9.367       8.520       6.869       4.063      1.1257E-02
   9    10.00       9.991       9.970       9.911       9.752       9.367       8.520       6.869       4.063      1.1257E-02
  10    10.00       9.991       9.970       9.911       9.752       9.367       8.520       6.869       4.063      1.1257E-02
1
              HEAD IN LAYER   3 AT END OF TIME STEP  40 IN STRESS PERIOD    2
  ---------------------------------------------------------------------------

            1           2           3           4           5           6           7           8           9          10
 ........................................................................................................................
   1    10.00       9.991       9.968       9.906       9.742       9.347       8.486       6.821       4.012      1.1914E-02
   2    10.00       9.991       9.968       9.906       9.742       9.347       8.486       6.821       4.012      1.1914E-02
   3    10.00       9.991       9.968       9.906       9.742       9.347       8.486       6.821       4.012      1.1914E-02
   4    10.00       9.991       9.968       9.906       9.742       9.347       8.486       6.821       4.012      1.1914E-02
   5    10.00       9.991       9.968       9.906       9.742       9.347       8.486       6.821       4.012      1.1914E-02
   6    10.00       9.991       9.968       9.906       9.742       9.347       8.486       6.821       4.012      1.1914E-02
   7    10.00       9.991       9.968       9.906       9.742       9.347       8.486       6.821       4.012      1.1914E-02
   8    10.00       9.991       9.968       9.906       9.742       9.347       8.486       6.821       4.012      1.1914E-02
   9    10.00       9.991       9.968       9.906       9.742       9.347       8.486       6.821       4.012      1.1914E-02
  10    10.00       9.991       9.968       9.906       9.742       9.347       8.486       6.821       4.012      1.1914E-02
1
              HEAD IN LAYER   4 AT END OF TIME STEP  40 IN STRESS PERIOD    2
  ---------------------------------------------------------------------------

            1           2           3           4           5           6           7           8           9          10
 ........................................................................................................................
   1    10.00       9.990       9.967       9.904       9.737       9.337       8.469       6.796       3.987      1.1923E-02
   2    10.00       9.990       9.967       9.904       9.737       9.337       8.469       6.796       3.987      1.1923E-02
   3    10.00       9.990       9.967       9.904       9.737       9.337       8.469       6.796       3.987      1.1923E-02
   4    10.00       9.990       9.967       9.904       9.737       9.337       8.469       6.796       3.987      1.1923E-02
   5    10.00       9.990       9.967       9.904       9.737       9.337       8.469       6.796       3.987      1.1923E-02
   6    10.00       9.990       9.967       9.904       9.737       9.337       8.469       6.796       3.987      1.1923E-02
   7    10.00       9.990       9.967       9.904       9.737       9.337       8.469       6.796       3.987      1.1923E-02
   8    10.00       9.990       9.967       9.904       9.737       9.337       8.469       6.796       3.987      1.1923E-02
   9    10.00       9.990       9.967       9.904       9.737       9.337       8.469       6.796       3.987      1.1923E-02
  10    10.00       9.990       9.967       9.904       9.737       9.337       8.469       6.796       3.987      1.1923E-02

 HEAD WILL BE SAVED ON UNIT   51 AT END OF TIME STEP   40, STRESS PERIOD    2

 DRAWDOWN WILL BE SAVED ON UNIT   52 AT END OF TIME STEP   40, STRESS PERIOD    2
1
  VOLUMETRIC BUDGET FOR ENTIRE MODEL AT END OF TIME STEP   40, STRESS PERIOD   2
  ------------------------------------------------------------------------------

     CUMULATIVE VOLUMES      L**3       RATES FOR THIS TIME STEP      L**3/T
     ------------------                 ------------------------

           IN:                                      IN:
           ---                                      ---
             STORAGE =      222955.6094               STORAGE =        2065.7729
       CONSTANT HEAD =           0.0000         CONSTANT HEAD =           0.0000
               WELLS =           0.0000                 WELLS =           0.0000
     HEAD DEP BOUNDS =          47.3737       HEAD DEP BOUNDS =           5.2730

            TOTAL IN =      223002.9844              TOTAL IN =        2071.0459

          OUT:                                     OUT:
          ----                                     ----
             STORAGE =           0.0000               STORAGE =           0.0000
       CONSTANT HEAD =           0.0000         CONSTANT HEAD =           0.0000
               WELLS =           0.0000                 WELLS =           0.0000
     HEAD DEP BOUNDS =      223003.3281       HEAD DEP BOUNDS =        2071.0923

           TOTAL OUT =      223003.3281             TOTAL OUT =        2071.0923

            IN - OUT =          -0.3438              IN - OUT =      -4.6387E-02

 PERCENT DISCREPANCY =          -0.00     PERCENT DISCREPANCY =          -0.00






         TIME SUMMARY AT END OF TIME STEP   40 IN STRESS PERIOD    2
                    SECONDS     MINUTES      HOURS       DAYS        YEARS
                    -----------------------------------------------------------
   TIME STEP LENGTH  86400.      1440.0      24.000      1.0000     2.73785E-03
 STRESS PERIOD TIME 3.45600E+06  57600.      960.00      40.000     0.10951    
         TOTAL TIME 3.54240E+06  59040.      984.00      41.000     0.11225    
1
 
 SOLVING FOR HEAD 

 OUTPUT CONTROL FOR STRESS PERIOD    2   TIME STEP   41
    SAVE HEAD FOR ALL LAYERS
    SAVE DRAWDOWN FOR ALL LAYERS
    SAVE BUDGET
    PRINT HEAD FOR ALL LAYERS
    PRINT BUDGET
 UBDSV1 SAVING "         STORAGE" ON UNIT  53 AT TIME STEP 41, STRESS PERIOD   2
 UBDSV2 SAVING "   CONSTANT HEAD" ON UNIT  53 AT TIME STEP 41, STRESS PERIOD   2
 UBDSV1 SAVING "FLOW RIGHT FACE " ON UNIT  53 AT TIME STEP 41, STRESS PERIOD   2
 UBDSV1 SAVING "FLOW FRONT FACE " ON UNIT  53 AT TIME STEP 41, STRESS PERIOD   2
 UBDSV1 SAVING "FLOW LOWER FACE " ON UNIT  53 AT TIME STEP 41, STRESS PERIOD   2
1
              HEAD IN LAYER   1 AT END OF TIME STEP  41 IN STRESS PERIOD    2
  ---------------------------------------------------------------------------

            1           2           3           4           5           6           7           8           9          10
 ........................................................................................................................
   1    10.00       9.991       9.970       9.911       9.754       9.370       8.526       6.879       4.077      6.2469E-03
   2    10.00       9.991       9.970       9.911       9.754       9.370       8.526       6.879       4.077      6.2469E-03
   3    10.00       9.991       9.970       9.911       9.754       9.370       8.526       6.879       4.077      6.2469E-03
   4    10.00       9.991       9.970       9.911       9.754       9.370       8.526       6.879       4.077      6.2469E-03
   5    10.00       9.991       9.970       9.911       9.754       9.370       8.526       6.879       4.077      6.2469E-03
   6    10.00       9.991       9.970       9.911       9.754       9.370       8.526       6.879       4.077      6.2469E-03
   7    10.00       9.991       9.970       9.911       9.754       9.370       8.526       6.879       4.077      6.2469E-03
   8    10.00       9.991       9.970       9.911       9.754       9.370       8.526       6.879       4.077      6.2469E-03
   9    10.00       9.991       9.970       9.911       9.754       9.370       8.526       6.879       4.077      6.2469E-03
  10    10.00       9.991       9.970       9.911       9.754       9.370       8.526       6.879       4.077      6.2469E-03
1
              HEAD IN LAYER   2 AT END OF TIME STEP  41 IN STRESS PERIOD    2
  ---------------------------------------------------------------------------

            1           2           3           4           5           6           7           8           9          10
 ........................................................................................................................
   1    10.00       9.990       9.968       9.904       9.739       9.341       8.477       6.815       4.017      1.1128E-02
   2    10.00       9.990       9.968       9.904       9.739       9.341       8.477       6.815       4.017      1.1128E-02
   3    10.00       9.990       9.968       9.904       9.739       9.341       8.477       6.815       4.017      1.1128E-02
   4    10.00       9.990       9.968       9.904       9.739       9.341       8.477       6.815       4.017      1.1128E-02
   5    10.00       9.990       9.968       9.904       9.739       9.341       8.477       6.815       4.017      1.1128E-02
   6    10.00       9.990       9.968       9.904       9.739       9.341       8.477       6.815       4.017      1.1128E-02
   7    10.00       9.990       9.968       9.904       9.739       9.341       8.477       6.815       4.017      1.1128E-02
   8    10.00       9.990       9.968       9.904       9.739       9.341       8.477       6.815       4.017      1.1128E-02
   9    10.00       9.990       9.968       9.904       9.739       9.341       8.477       6.815       4.017      1.1128E-02
  10    10.00       9.990       9.968       9.904       9.739       9.341       8.477       6.815       4.017      1.1128E-02
1
              HEAD IN LAYER   3 AT END OF TIME STEP  41 IN STRESS PERIOD    2
  ---------------------------------------------------------------------------

            1           2           3           4           5           6           7           8           9          10
 ........................................................................................................................
   1    10.00       9.990       9.966       9.900       9.729       9.321       8.443       6.767       3.967      1.1781E-02
   2    10.00       9.990       9.966       9.900       9.729       9.321       8.443       6.767       3.967      1.1781E-02
   3    10.00       9.990       9.966       9.900       9.729       9.321       8.443       6.767       3.967      1.1781E-02
   4    10.00       9.990       9.966       9.900       9.729       9.321       8.443       6.767       3.967      1.1781E-02
   5    10.00       9.990       9.966       9.900       9.729       9.321       8.443       6.767       3.967      1.1781E-02
   6    10.00       9.990       9.966       9.900       9.729       9.321       8.443       6.767       3.967      1.1781E-02
   7    10.00       9.990       9.966       9.900       9.729       9.321       8.443       6.767       3.967      1.1781E-02
   8    10.00       9.990       9.966       9.900       9.729       9.321       8.443       6.767       3.967      1.1781E-02
   9    10.00       9.990       9.966       9.900       9.729       9.321       8.443       6.767       3.967      1.1781E-02
  10    10.00       9.990       9.966       9.900       9.729       9.321       8.443       6.767       3.967      1.1781E-02
1
              HEAD IN LAYER   4 AT END OF TIME STEP  41 IN STRESS PERIOD    2
  ---------------------------------------------------------------------------

            1           2           3           4           5           6           7           8           9          10
 ........................................................................................................................
   1    10.00       9.990       9.965       9.898       9.724       9.311       8.426       6.743       3.943      1.1792E-02
   2    10.00       9.990       9.965       9.898       9.724       9.311       8.426       6.743       3.943      1.1792E-02
   3    10.00       9.990       9.965       9.898       9.724       9.311       8.426       6.743       3.943      1.1792E-02
   4    10.00       9.990       9.965       9.898       9.724       9.311       8.426       6.743       3.943      1.1792E-02
   5    10.00       9.990       9.965       9.898       9.724       9.311       8.426       6.743       3.943      1.1792E-02
   6    10.00       9.990       9.965       9.898       9.724       9.311       8.426       6.743       3.943      1.1792E-02
   7    10.00       9.990       9.965       9.898       9.724       9.311       8.426       6.743       3.943      1.1792E-02
   8    10.00       9.990       9.965       9.898       9.724       9.311       8.426       6.743       3.943      1.1792E-02
   9    10.00       9.990       9.965       9.898       9.724       9.311       8.426       6.743       3.943      1.1792E-02
  10    10.00       9.990       9.965       9.898       9.724       9.311       8.426       6.743       3.943      1.1792E-02

 HEAD WILL BE SAVED ON UNIT   51 AT END OF TIME STEP   41, STRESS PERIOD    2

 DRAWDOWN WILL BE SAVED ON UNIT   52 AT END OF TIME STEP   41, STRESS PERIOD    2
1
  VOLUMETRIC BUDGET FOR ENTIRE MODEL AT END OF TIME STEP   41, STRESS PERIOD   2
  ------------------------------------------------------------------------------

     CUMULATIVE VOLUMES      L**3       RATES FOR THIS TIME STEP      L**3/T
     ------------------                 ------------------------

           IN:                                      IN:
           ---                                      ---
             STORAGE =      224997.2344               STORAGE =        2041.6310
       CONSTANT HEAD =           0.0000         CONSTANT HEAD =           0.0000
               WELLS =           0.0000                 WELLS =           0.0000
     HEAD DEP BOUNDS =          53.1255       HEAD DEP BOUNDS =           5.7519

            TOTAL IN =      225050.3594              TOTAL IN =        2047.3828

          OUT:                                     OUT:
          ----                                     ----
             STORAGE =           0.0000               STORAGE =           0.0000
       CONSTANT HEAD =           0.0000         CONSTANT HEAD =           0.0000
               WELLS =           0.0000                 WELLS =           0.0000
     HEAD DEP BOUNDS =      225050.7500       HEAD DEP BOUNDS =        2047.4269

           TOTAL OUT =      225050.7500             TOTAL OUT =        2047.4269

            IN - OUT =          -0.3906              IN - OUT =      -4.4067E-02

 PERCENT DISCREPANCY =          -0.00     PERCENT DISCREPANCY =          -0.00






         TIME SUMMARY AT END OF TIME STEP   41 IN STRESS PERIOD    2
                    SECONDS     MINUTES      HOURS       DAYS        YEARS
                    -----------------------------------------------------------
   TIME STEP LENGTH  86400.      1440.0      24.000      1.0000     2.73785E-03
 STRESS PERIOD TIME 3.54240E+06  59040.      984.00      41.000     0.11225    
         TOTAL TIME 3.62880E+06  60480.      1008.0      42.000     0.11499    
1
 
 SOLVING FOR HEAD 

 OUTPUT CONTROL FOR STRESS PERIOD    2   TIME STEP   42
    SAVE HEAD FOR ALL LAYERS
    SAVE DRAWDOWN FOR ALL LAYERS
    SAVE BUDGET
    PRINT HEAD FOR ALL LAYERS
    PRINT BUDGET
 UBDSV1 SAVING "         STORAGE" ON UNIT  53 AT TIME STEP 42, STRESS PERIOD   2
 UBDSV2 SAVING "   CONSTANT HEAD" ON UNIT  53 AT TIME STEP 42, STRESS PERIOD   2
 UBDSV1 SAVING "FLOW RIGHT FACE " ON UNIT  53 AT TIME STEP 42, STRESS PERIOD   2
 UBDSV1 SAVING "FLOW FRONT FACE " ON UNIT  53 AT TIME STEP 42, STRESS PERIOD   2
 UBDSV1 SAVING "FLOW LOWER FACE " ON UNIT  53 AT TIME STEP 42, STRESS PERIOD   2
1
              HEAD IN LAYER   1 AT END OF TIME STEP  42 IN STRESS PERIOD    2
  ---------------------------------------------------------------------------

            1           2           3           4           5           6           7           8           9          10
 ........................................................................................................................
   1    10.00       9.990       9.968       9.905       9.740       9.343       8.483       6.824       4.031      6.1680E-03
   2    10.00       9.990       9.968       9.905       9.740       9.343       8.483       6.824       4.031      6.1680E-03
   3    10.00       9.990       9.968       9.905       9.740       9.343       8.483       6.824       4.031      6.1680E-03
   4    10.00       9.990       9.968       9.905       9.740       9.343       8.483       6.824       4.031      6.1680E-03
   5    10.00       9.990       9.968       9.905       9.740       9.343       8.483       6.824       4.031      6.1680E-03
   6    10.00       9.990       9.968       9.905       9.740       9.343       8.483       6.824       4.031      6.1680E-03
   7    10.00       9.990       9.968       9.905       9.740       9.343       8.483       6.824       4.031      6.1680E-03
   8    10.00       9.990       9.968       9.905       9.740       9.343       8.483       6.824       4.031      6.1680E-03
   9    10.00       9.990       9.968       9.905       9.740       9.343       8.483       6.824       4.031      6.1680E-03
  10    10.00       9.990       9.968       9.905       9.740       9.343       8.483       6.824       4.031      6.1680E-03
1
              HEAD IN LAYER   2 AT END OF TIME STEP  42 IN STRESS PERIOD    2
  ---------------------------------------------------------------------------

            1           2           3           4           5           6           7           8           9          10
 ........................................................................................................................
   1    10.00       9.990       9.965       9.898       9.725       9.314       8.435       6.761       3.972      1.1004E-02
   2    10.00       9.990       9.965       9.898       9.725       9.314       8.435       6.761       3.972      1.1004E-02
   3    10.00       9.990       9.965       9.898       9.725       9.314       8.435       6.761       3.972      1.1004E-02
   4    10.00       9.990       9.965       9.898       9.725       9.314       8.435       6.761       3.972      1.1004E-02
   5    10.00       9.990       9.965       9.898       9.725       9.314       8.435       6.761       3.972      1.1004E-02
   6    10.00       9.990       9.965       9.898       9.725       9.314       8.435       6.761       3.972      1.1004E-02
   7    10.00       9.990       9.965       9.898       9.725       9.314       8.435       6.761       3.972      1.1004E-02
   8    10.00       9.990       9.965       9.898       9.725       9.314       8.435       6.761       3.972      1.1004E-02
   9    10.00       9.990       9.965       9.898       9.725       9.314       8.435       6.761       3.972      1.1004E-02
  10    10.00       9.990       9.965       9.898       9.725       9.314       8.435       6.761       3.972      1.1004E-02
1
              HEAD IN LAYER   3 AT END OF TIME STEP  42 IN STRESS PERIOD    2
  ---------------------------------------------------------------------------

            1           2           3           4           5           6           7           8           9          10
 ........................................................................................................................
   1    10.00       9.989       9.963       9.893       9.715       9.294       8.401       6.714       3.924      1.1653E-02
   2    10.00       9.989       9.963       9.893       9.715       9.294       8.401       6.714       3.924      1.1653E-02
   3    10.00       9.989       9.963       9.893       9.715       9.294       8.401       6.714       3.924      1.1653E-02
   4    10.00       9.989       9.963       9.893       9.715       9.294       8.401       6.714       3.924      1.1653E-02
   5    10.00       9.989       9.963       9.893       9.715       9.294       8.401       6.714       3.924      1.1653E-02
   6    10.00       9.989       9.963       9.893       9.715       9.294       8.401       6.714       3.924      1.1653E-02
   7    10.00       9.989       9.963       9.893       9.715       9.294       8.401       6.714       3.924      1.1653E-02
   8    10.00       9.989       9.963       9.893       9.715       9.294       8.401       6.714       3.924      1.1653E-02
   9    10.00       9.989       9.963       9.893       9.715       9.294       8.401       6.714       3.924      1.1653E-02
  10    10.00       9.989       9.963       9.893       9.715       9.294       8.401       6.714       3.924      1.1653E-02
1
              HEAD IN LAYER   4 AT END OF TIME STEP  42 IN STRESS PERIOD    2
  ---------------------------------------------------------------------------

            1           2           3           4           5           6           7           8           9          10
 ........................................................................................................................
   1    10.00       9.989       9.962       9.891       9.709       9.284       8.384       6.690       3.900      1.1665E-02
   2    10.00       9.989       9.962       9.891       9.709       9.284       8.384       6.690       3.900      1.1665E-02
   3    10.00       9.989       9.962       9.891       9.709       9.284       8.384       6.690       3.900      1.1665E-02
   4    10.00       9.989       9.962       9.891       9.709       9.284       8.384       6.690       3.900      1.1665E-02
   5    10.00       9.989       9.962       9.891       9.709       9.284       8.384       6.690       3.900      1.1665E-02
   6    10.00       9.989       9.962       9.891       9.709       9.284       8.384       6.690       3.900      1.1665E-02
   7    10.00       9.989       9.962       9.891       9.709       9.284       8.384       6.690       3.900      1.1665E-02
   8    10.00       9.989       9.962       9.891       9.709       9.284       8.384       6.690       3.900      1.1665E-02
   9    10.00       9.989       9.962       9.891       9.709       9.284       8.384       6.690       3.900      1.1665E-02
  10    10.00       9.989       9.962       9.891       9.709       9.284       8.384       6.690       3.900      1.1665E-02

 HEAD WILL BE SAVED ON UNIT   51 AT END OF TIME STEP   42, STRESS PERIOD    2

 DRAWDOWN WILL BE SAVED ON UNIT   52 AT END OF TIME STEP   42, STRESS PERIOD    2
1
  VOLUMETRIC BUDGET FOR ENTIRE MODEL AT END OF TIME STEP   42, STRESS PERIOD   2
  ------------------------------------------------------------------------------

     CUMULATIVE VOLUMES      L**3       RATES FOR THIS TIME STEP      L**3/T
     ------------------                 ------------------------

           IN:                                      IN:
           ---                                      ---
             STORAGE =      227015.4375               STORAGE =        2018.1989
       CONSTANT HEAD =           0.0000         CONSTANT HEAD =           0.0000
               WELLS =           0.0000                 WELLS =           0.0000
     HEAD DEP BOUNDS =          59.4524       HEAD DEP BOUNDS =           6.3269

            TOTAL IN =      227074.8906              TOTAL IN =        2024.5258

          OUT:                                     OUT:
          ----                                     ----
             STORAGE =           0.0000               STORAGE =           0.0000
       CONSTANT HEAD =           0.0000         CONSTANT HEAD =           0.0000
               WELLS =           0.0000                 WELLS =           0.0000
     HEAD DEP BOUNDS =      227075.2656       HEAD DEP BOUNDS =        2024.5159

           TOTAL OUT =      227075.2656             TOTAL OUT =        2024.5159

            IN - OUT =          -0.3750              IN - OUT =       9.8877E-03

 PERCENT DISCREPANCY =          -0.00     PERCENT DISCREPANCY =           0.00






         TIME SUMMARY AT END OF TIME STEP   42 IN STRESS PERIOD    2
                    SECONDS     MINUTES      HOURS       DAYS        YEARS
                    -----------------------------------------------------------
   TIME STEP LENGTH  86400.      1440.0      24.000      1.0000     2.73785E-03
 STRESS PERIOD TIME 3.62880E+06  60480.      1008.0      42.000     0.11499    
         TOTAL TIME 3.71520E+06  61920.      1032.0      43.000     0.11773    
1
 
 SOLVING FOR HEAD 

 OUTPUT CONTROL FOR STRESS PERIOD    2   TIME STEP   43
    SAVE HEAD FOR ALL LAYERS
    SAVE DRAWDOWN FOR ALL LAYERS
    SAVE BUDGET
    PRINT HEAD FOR ALL LAYERS
    PRINT BUDGET
 UBDSV1 SAVING "         STORAGE" ON UNIT  53 AT TIME STEP 43, STRESS PERIOD   2
 UBDSV2 SAVING "   CONSTANT HEAD" ON UNIT  53 AT TIME STEP 43, STRESS PERIOD   2
 UBDSV1 SAVING "FLOW RIGHT FACE " ON UNIT  53 AT TIME STEP 43, STRESS PERIOD   2
 UBDSV1 SAVING "FLOW FRONT FACE " ON UNIT  53 AT TIME STEP 43, STRESS PERIOD   2
 UBDSV1 SAVING "FLOW LOWER FACE " ON UNIT  53 AT TIME STEP 43, STRESS PERIOD   2
1
              HEAD IN LAYER   1 AT END OF TIME STEP  43 IN STRESS PERIOD    2
  ---------------------------------------------------------------------------

            1           2           3           4           5           6           7           8           9          10
 ........................................................................................................................
   1    10.00       9.990       9.965       9.899       9.726       9.317       8.441       6.770       3.986      6.0919E-03
   2    10.00       9.990       9.965       9.899       9.726       9.317       8.441       6.770       3.986      6.0919E-03
   3    10.00       9.990       9.965       9.899       9.726       9.317       8.441       6.770       3.986      6.0919E-03
   4    10.00       9.990       9.965       9.899       9.726       9.317       8.441       6.770       3.986      6.0919E-03
   5    10.00       9.990       9.965       9.899       9.726       9.317       8.441       6.770       3.986      6.0919E-03
   6    10.00       9.990       9.965       9.899       9.726       9.317       8.441       6.770       3.986      6.0919E-03
   7    10.00       9.990       9.965       9.899       9.726       9.317       8.441       6.770       3.986      6.0919E-03
   8    10.00       9.990       9.965       9.899       9.726       9.317       8.441       6.770       3.986      6.0919E-03
   9    10.00       9.990       9.965       9.899       9.726       9.317       8.441       6.770       3.986      6.0919E-03
  10    10.00       9.990       9.965       9.899       9.726       9.317       8.441       6.770       3.986      6.0919E-03
1
              HEAD IN LAYER   2 AT END OF TIME STEP  43 IN STRESS PERIOD    2
  ---------------------------------------------------------------------------

            1           2           3           4           5           6           7           8           9          10
 ........................................................................................................................
   1    10.00       9.989       9.962       9.892       9.711       9.288       8.393       6.708       3.929      1.0884E-02
   2    10.00       9.989       9.962       9.892       9.711       9.288       8.393       6.708       3.929      1.0884E-02
   3    10.00       9.989       9.962       9.892       9.711       9.288       8.393       6.708       3.929      1.0884E-02
   4    10.00       9.989       9.962       9.892       9.711       9.288       8.393       6.708       3.929      1.0884E-02
   5    10.00       9.989       9.962       9.892       9.711       9.288       8.393       6.708       3.929      1.0884E-02
   6    10.00       9.989       9.962       9.892       9.711       9.288       8.393       6.708       3.929      1.0884E-02
   7    10.00       9.989       9.962       9.892       9.711       9.288       8.393       6.708       3.929      1.0884E-02
   8    10.00       9.989       9.962       9.892       9.711       9.288       8.393       6.708       3.929      1.0884E-02
   9    10.00       9.989       9.962       9.892       9.711       9.288       8.393       6.708       3.929      1.0884E-02
  10    10.00       9.989       9.962       9.892       9.711       9.288       8.393       6.708       3.929      1.0884E-02
1
              HEAD IN LAYER   3 AT END OF TIME STEP  43 IN STRESS PERIOD    2
  ---------------------------------------------------------------------------

            1           2           3           4           5           6           7           8           9          10
 ........................................................................................................................
   1    10.00       9.988       9.960       9.887       9.700       9.267       8.359       6.662       3.883      1.1529E-02
   2    10.00       9.988       9.960       9.887       9.700       9.267       8.359       6.662       3.883      1.1529E-02
   3    10.00       9.988       9.960       9.887       9.700       9.267       8.359       6.662       3.883      1.1529E-02
   4    10.00       9.988       9.960       9.887       9.700       9.267       8.359       6.662       3.883      1.1529E-02
   5    10.00       9.988       9.960       9.887       9.700       9.267       8.359       6.662       3.883      1.1529E-02
   6    10.00       9.988       9.960       9.887       9.700       9.267       8.359       6.662       3.883      1.1529E-02
   7    10.00       9.988       9.960       9.887       9.700       9.267       8.359       6.662       3.883      1.1529E-02
   8    10.00       9.988       9.960       9.887       9.700       9.267       8.359       6.662       3.883      1.1529E-02
   9    10.00       9.988       9.960       9.887       9.700       9.267       8.359       6.662       3.883      1.1529E-02
  10    10.00       9.988       9.960       9.887       9.700       9.267       8.359       6.662       3.883      1.1529E-02
1
              HEAD IN LAYER   4 AT END OF TIME STEP  43 IN STRESS PERIOD    2
  ---------------------------------------------------------------------------

            1           2           3           4           5           6           7           8           9          10
 ........................................................................................................................
   1    10.00       9.988       9.959       9.884       9.695       9.257       8.342       6.639       3.859      1.1542E-02
   2    10.00       9.988       9.959       9.884       9.695       9.257       8.342       6.639       3.859      1.1542E-02
   3    10.00       9.988       9.959       9.884       9.695       9.257       8.342       6.639       3.859      1.1542E-02
   4    10.00       9.988       9.959       9.884       9.695       9.257       8.342       6.639       3.859      1.1542E-02
   5    10.00       9.988       9.959       9.884       9.695       9.257       8.342       6.639       3.859      1.1542E-02
   6    10.00       9.988       9.959       9.884       9.695       9.257       8.342       6.639       3.859      1.1542E-02
   7    10.00       9.988       9.959       9.884       9.695       9.257       8.342       6.639       3.859      1.1542E-02
   8    10.00       9.988       9.959       9.884       9.695       9.257       8.342       6.639       3.859      1.1542E-02
   9    10.00       9.988       9.959       9.884       9.695       9.257       8.342       6.639       3.859      1.1542E-02
  10    10.00       9.988       9.959       9.884       9.695       9.257       8.342       6.639       3.859      1.1542E-02

 HEAD WILL BE SAVED ON UNIT   51 AT END OF TIME STEP   43, STRESS PERIOD    2

 DRAWDOWN WILL BE SAVED ON UNIT   52 AT END OF TIME STEP   43, STRESS PERIOD    2
1
  VOLUMETRIC BUDGET FOR ENTIRE MODEL AT END OF TIME STEP   43, STRESS PERIOD   2
  ------------------------------------------------------------------------------

     CUMULATIVE VOLUMES      L**3       RATES FOR THIS TIME STEP      L**3/T
     ------------------                 ------------------------

           IN:                                      IN:
           ---                                      ---
             STORAGE =      229010.8750               STORAGE =        1995.4435
       CONSTANT HEAD =           0.0000         CONSTANT HEAD =           0.0000
               WELLS =           0.0000                 WELLS =           0.0000
     HEAD DEP BOUNDS =          66.3161       HEAD DEP BOUNDS =           6.8636

            TOTAL IN =      229077.1875              TOTAL IN =        2002.3071

          OUT:                                     OUT:
          ----                                     ----
             STORAGE =           0.0000               STORAGE =           0.0000
       CONSTANT HEAD =           0.0000         CONSTANT HEAD =           0.0000
               WELLS =           0.0000                 WELLS =           0.0000
     HEAD DEP BOUNDS =      229077.5938       HEAD DEP BOUNDS =        2002.3326

           TOTAL OUT =      229077.5938             TOTAL OUT =        2002.3326

            IN - OUT =          -0.4062              IN - OUT =      -2.5513E-02

 PERCENT DISCREPANCY =          -0.00     PERCENT DISCREPANCY =          -0.00






         TIME SUMMARY AT END OF TIME STEP   43 IN STRESS PERIOD    2
                    SECONDS     MINUTES      HOURS       DAYS        YEARS
                    -----------------------------------------------------------
   TIME STEP LENGTH  86400.      1440.0      24.000      1.0000     2.73785E-03
 STRESS PERIOD TIME 3.71520E+06  61920.      1032.0      43.000     0.11773    
         TOTAL TIME 3.80160E+06  63360.      1056.0      44.000     0.12047    
1
 
 SOLVING FOR HEAD 

 OUTPUT CONTROL FOR STRESS PERIOD    2   TIME STEP   44
    SAVE HEAD FOR ALL LAYERS
    SAVE DRAWDOWN FOR ALL LAYERS
    SAVE BUDGET
    PRINT HEAD FOR ALL LAYERS
    PRINT BUDGET
 UBDSV1 SAVING "         STORAGE" ON UNIT  53 AT TIME STEP 44, STRESS PERIOD   2
 UBDSV2 SAVING "   CONSTANT HEAD" ON UNIT  53 AT TIME STEP 44, STRESS PERIOD   2
 UBDSV1 SAVING "FLOW RIGHT FACE " ON UNIT  53 AT TIME STEP 44, STRESS PERIOD   2
 UBDSV1 SAVING "FLOW FRONT FACE " ON UNIT  53 AT TIME STEP 44, STRESS PERIOD   2
 UBDSV1 SAVING "FLOW LOWER FACE " ON UNIT  53 AT TIME STEP 44, STRESS PERIOD   2
1
              HEAD IN LAYER   1 AT END OF TIME STEP  44 IN STRESS PERIOD    2
  ---------------------------------------------------------------------------

            1           2           3           4           5           6           7           8           9          10
 ........................................................................................................................
   1    10.00       9.989       9.963       9.892       9.712       9.291       8.399       6.718       3.943      6.0182E-03
   2    10.00       9.989       9.963       9.892       9.712       9.291       8.399       6.718       3.943      6.0182E-03
   3    10.00       9.989       9.963       9.892       9.712       9.291       8.399       6.718       3.943      6.0182E-03
   4    10.00       9.989       9.963       9.892       9.712       9.291       8.399       6.718       3.943      6.0182E-03
   5    10.00       9.989       9.963       9.892       9.712       9.291       8.399       6.718       3.943      6.0182E-03
   6    10.00       9.989       9.963       9.892       9.712       9.291       8.399       6.718       3.943      6.0182E-03
   7    10.00       9.989       9.963       9.892       9.712       9.291       8.399       6.718       3.943      6.0182E-03
   8    10.00       9.989       9.963       9.892       9.712       9.291       8.399       6.718       3.943      6.0182E-03
   9    10.00       9.989       9.963       9.892       9.712       9.291       8.399       6.718       3.943      6.0182E-03
  10    10.00       9.989       9.963       9.892       9.712       9.291       8.399       6.718       3.943      6.0182E-03
1
              HEAD IN LAYER   2 AT END OF TIME STEP  44 IN STRESS PERIOD    2
  ---------------------------------------------------------------------------

            1           2           3           4           5           6           7           8           9          10
 ........................................................................................................................
   1    10.00       9.988       9.960       9.885       9.696       9.261       8.351       6.657       3.888      1.0767E-02
   2    10.00       9.988       9.960       9.885       9.696       9.261       8.351       6.657       3.888      1.0767E-02
   3    10.00       9.988       9.960       9.885       9.696       9.261       8.351       6.657       3.888      1.0767E-02
   4    10.00       9.988       9.960       9.885       9.696       9.261       8.351       6.657       3.888      1.0767E-02
   5    10.00       9.988       9.960       9.885       9.696       9.261       8.351       6.657       3.888      1.0767E-02
   6    10.00       9.988       9.960       9.885       9.696       9.261       8.351       6.657       3.888      1.0767E-02
   7    10.00       9.988       9.960       9.885       9.696       9.261       8.351       6.657       3.888      1.0767E-02
   8    10.00       9.988       9.960       9.885       9.696       9.261       8.351       6.657       3.888      1.0767E-02
   9    10.00       9.988       9.960       9.885       9.696       9.261       8.351       6.657       3.888      1.0767E-02
  10    10.00       9.988       9.960       9.885       9.696       9.261       8.351       6.657       3.888      1.0767E-02
1
              HEAD IN LAYER   3 AT END OF TIME STEP  44 IN STRESS PERIOD    2
  ---------------------------------------------------------------------------

            1           2           3           4           5           6           7           8           9          10
 ........................................................................................................................
   1    10.00       9.987       9.957       9.880       9.686       9.241       8.318       6.611       3.842      1.1409E-02
   2    10.00       9.987       9.957       9.880       9.686       9.241       8.318       6.611       3.842      1.1409E-02
   3    10.00       9.987       9.957       9.880       9.686       9.241       8.318       6.611       3.842      1.1409E-02
   4    10.00       9.987       9.957       9.880       9.686       9.241       8.318       6.611       3.842      1.1409E-02
   5    10.00       9.987       9.957       9.880       9.686       9.241       8.318       6.611       3.842      1.1409E-02
   6    10.00       9.987       9.957       9.880       9.686       9.241       8.318       6.611       3.842      1.1409E-02
   7    10.00       9.987       9.957       9.880       9.686       9.241       8.318       6.611       3.842      1.1409E-02
   8    10.00       9.987       9.957       9.880       9.686       9.241       8.318       6.611       3.842      1.1409E-02
   9    10.00       9.987       9.957       9.880       9.686       9.241       8.318       6.611       3.842      1.1409E-02
  10    10.00       9.987       9.957       9.880       9.686       9.241       8.318       6.611       3.842      1.1409E-02
1
              HEAD IN LAYER   4 AT END OF TIME STEP  44 IN STRESS PERIOD    2
  ---------------------------------------------------------------------------

            1           2           3           4           5           6           7           8           9          10
 ........................................................................................................................
   1    10.00       9.987       9.956       9.877       9.680       9.230       8.301       6.589       3.820      1.1423E-02
   2    10.00       9.987       9.956       9.877       9.680       9.230       8.301       6.589       3.820      1.1423E-02
   3    10.00       9.987       9.956       9.877       9.680       9.230       8.301       6.589       3.820      1.1423E-02
   4    10.00       9.987       9.956       9.877       9.680       9.230       8.301       6.589       3.820      1.1423E-02
   5    10.00       9.987       9.956       9.877       9.680       9.230       8.301       6.589       3.820      1.1423E-02
   6    10.00       9.987       9.956       9.877       9.680       9.230       8.301       6.589       3.820      1.1423E-02
   7    10.00       9.987       9.956       9.877       9.680       9.230       8.301       6.589       3.820      1.1423E-02
   8    10.00       9.987       9.956       9.877       9.680       9.230       8.301       6.589       3.820      1.1423E-02
   9    10.00       9.987       9.956       9.877       9.680       9.230       8.301       6.589       3.820      1.1423E-02
  10    10.00       9.987       9.956       9.877       9.680       9.230       8.301       6.589       3.820      1.1423E-02

 HEAD WILL BE SAVED ON UNIT   51 AT END OF TIME STEP   44, STRESS PERIOD    2

 DRAWDOWN WILL BE SAVED ON UNIT   52 AT END OF TIME STEP   44, STRESS PERIOD    2
1
  VOLUMETRIC BUDGET FOR ENTIRE MODEL AT END OF TIME STEP   44, STRESS PERIOD   2
  ------------------------------------------------------------------------------

     CUMULATIVE VOLUMES      L**3       RATES FOR THIS TIME STEP      L**3/T
     ------------------                 ------------------------

           IN:                                      IN:
           ---                                      ---
             STORAGE =      230984.2500               STORAGE =        1973.3687
       CONSTANT HEAD =           0.0000         CONSTANT HEAD =           0.0000
               WELLS =           0.0000                 WELLS =           0.0000
     HEAD DEP BOUNDS =          73.7460       HEAD DEP BOUNDS =           7.4300

            TOTAL IN =      231058.0000              TOTAL IN =        1980.7986

          OUT:                                     OUT:
          ----                                     ----
             STORAGE =           0.0000               STORAGE =           0.0000
       CONSTANT HEAD =           0.0000         CONSTANT HEAD =           0.0000
               WELLS =           0.0000                 WELLS =           0.0000
     HEAD DEP BOUNDS =      231058.4219       HEAD DEP BOUNDS =        1980.8268

           TOTAL OUT =      231058.4219             TOTAL OUT =        1980.8268

            IN - OUT =          -0.4219              IN - OUT =      -2.8198E-02

 PERCENT DISCREPANCY =          -0.00     PERCENT DISCREPANCY =          -0.00






         TIME SUMMARY AT END OF TIME STEP   44 IN STRESS PERIOD    2
                    SECONDS     MINUTES      HOURS       DAYS        YEARS
                    -----------------------------------------------------------
   TIME STEP LENGTH  86400.      1440.0      24.000      1.0000     2.73785E-03
 STRESS PERIOD TIME 3.80160E+06  63360.      1056.0      44.000     0.12047    
         TOTAL TIME 3.88800E+06  64800.      1080.0      45.000     0.12320    
1
 
 SOLVING FOR HEAD 

 OUTPUT CONTROL FOR STRESS PERIOD    2   TIME STEP   45
    SAVE HEAD FOR ALL LAYERS
    SAVE DRAWDOWN FOR ALL LAYERS
    SAVE BUDGET
    PRINT HEAD FOR ALL LAYERS
    PRINT BUDGET
 UBDSV1 SAVING "         STORAGE" ON UNIT  53 AT TIME STEP 45, STRESS PERIOD   2
 UBDSV2 SAVING "   CONSTANT HEAD" ON UNIT  53 AT TIME STEP 45, STRESS PERIOD   2
 UBDSV1 SAVING "FLOW RIGHT FACE " ON UNIT  53 AT TIME STEP 45, STRESS PERIOD   2
 UBDSV1 SAVING "FLOW FRONT FACE " ON UNIT  53 AT TIME STEP 45, STRESS PERIOD   2
 UBDSV1 SAVING "FLOW LOWER FACE " ON UNIT  53 AT TIME STEP 45, STRESS PERIOD   2
1
              HEAD IN LAYER   1 AT END OF TIME STEP  45 IN STRESS PERIOD    2
  ---------------------------------------------------------------------------

            1           2           3           4           5           6           7           8           9          10
 ........................................................................................................................
   1    10.00       9.988       9.960       9.885       9.698       9.264       8.357       6.666       3.901      5.9470E-03
   2    10.00       9.988       9.960       9.885       9.698       9.264       8.357       6.666       3.901      5.9470E-03
   3    10.00       9.988       9.960       9.885       9.698       9.264       8.357       6.666       3.901      5.9470E-03
   4    10.00       9.988       9.960       9.885       9.698       9.264       8.357       6.666       3.901      5.9470E-03
   5    10.00       9.988       9.960       9.885       9.698       9.264       8.357       6.666       3.901      5.9470E-03
   6    10.00       9.988       9.960       9.885       9.698       9.264       8.357       6.666       3.901      5.9470E-03
   7    10.00       9.988       9.960       9.885       9.698       9.264       8.357       6.666       3.901      5.9470E-03
   8    10.00       9.988       9.960       9.885       9.698       9.264       8.357       6.666       3.901      5.9470E-03
   9    10.00       9.988       9.960       9.885       9.698       9.264       8.357       6.666       3.901      5.9470E-03
  10    10.00       9.988       9.960       9.885       9.698       9.264       8.357       6.666       3.901      5.9470E-03
1
              HEAD IN LAYER   2 AT END OF TIME STEP  45 IN STRESS PERIOD    2
  ---------------------------------------------------------------------------

            1           2           3           4           5           6           7           8           9          10
 ........................................................................................................................
   1    10.00       9.987       9.957       9.878       9.682       9.234       8.310       6.606       3.847      1.0654E-02
   2    10.00       9.987       9.957       9.878       9.682       9.234       8.310       6.606       3.847      1.0654E-02
   3    10.00       9.987       9.957       9.878       9.682       9.234       8.310       6.606       3.847      1.0654E-02
   4    10.00       9.987       9.957       9.878       9.682       9.234       8.310       6.606       3.847      1.0654E-02
   5    10.00       9.987       9.957       9.878       9.682       9.234       8.310       6.606       3.847      1.0654E-02
   6    10.00       9.987       9.957       9.878       9.682       9.234       8.310       6.606       3.847      1.0654E-02
   7    10.00       9.987       9.957       9.878       9.682       9.234       8.310       6.606       3.847      1.0654E-02
   8    10.00       9.987       9.957       9.878       9.682       9.234       8.310       6.606       3.847      1.0654E-02
   9    10.00       9.987       9.957       9.878       9.682       9.234       8.310       6.606       3.847      1.0654E-02
  10    10.00       9.987       9.957       9.878       9.682       9.234       8.310       6.606       3.847      1.0654E-02
1
              HEAD IN LAYER   3 AT END OF TIME STEP  45 IN STRESS PERIOD    2
  ---------------------------------------------------------------------------

            1           2           3           4           5           6           7           8           9          10
 ........................................................................................................................
   1    10.00       9.986       9.954       9.873       9.671       9.214       8.277       6.562       3.803      1.1292E-02
   2    10.00       9.986       9.954       9.873       9.671       9.214       8.277       6.562       3.803      1.1292E-02
   3    10.00       9.986       9.954       9.873       9.671       9.214       8.277       6.562       3.803      1.1292E-02
   4    10.00       9.986       9.954       9.873       9.671       9.214       8.277       6.562       3.803      1.1292E-02
   5    10.00       9.986       9.954       9.873       9.671       9.214       8.277       6.562       3.803      1.1292E-02
   6    10.00       9.986       9.954       9.873       9.671       9.214       8.277       6.562       3.803      1.1292E-02
   7    10.00       9.986       9.954       9.873       9.671       9.214       8.277       6.562       3.803      1.1292E-02
   8    10.00       9.986       9.954       9.873       9.671       9.214       8.277       6.562       3.803      1.1292E-02
   9    10.00       9.986       9.954       9.873       9.671       9.214       8.277       6.562       3.803      1.1292E-02
  10    10.00       9.986       9.954       9.873       9.671       9.214       8.277       6.562       3.803      1.1292E-02
1
              HEAD IN LAYER   4 AT END OF TIME STEP  45 IN STRESS PERIOD    2
  ---------------------------------------------------------------------------

            1           2           3           4           5           6           7           8           9          10
 ........................................................................................................................
   1    10.00       9.986       9.953       9.870       9.665       9.204       8.260       6.539       3.781      1.1307E-02
   2    10.00       9.986       9.953       9.870       9.665       9.204       8.260       6.539       3.781      1.1307E-02
   3    10.00       9.986       9.953       9.870       9.665       9.204       8.260       6.539       3.781      1.1307E-02
   4    10.00       9.986       9.953       9.870       9.665       9.204       8.260       6.539       3.781      1.1307E-02
   5    10.00       9.986       9.953       9.870       9.665       9.204       8.260       6.539       3.781      1.1307E-02
   6    10.00       9.986       9.953       9.870       9.665       9.204       8.260       6.539       3.781      1.1307E-02
   7    10.00       9.986       9.953       9.870       9.665       9.204       8.260       6.539       3.781      1.1307E-02
   8    10.00       9.986       9.953       9.870       9.665       9.204       8.260       6.539       3.781      1.1307E-02
   9    10.00       9.986       9.953       9.870       9.665       9.204       8.260       6.539       3.781      1.1307E-02
  10    10.00       9.986       9.953       9.870       9.665       9.204       8.260       6.539       3.781      1.1307E-02

 HEAD WILL BE SAVED ON UNIT   51 AT END OF TIME STEP   45, STRESS PERIOD    2

 DRAWDOWN WILL BE SAVED ON UNIT   52 AT END OF TIME STEP   45, STRESS PERIOD    2
1
  VOLUMETRIC BUDGET FOR ENTIRE MODEL AT END OF TIME STEP   45, STRESS PERIOD   2
  ------------------------------------------------------------------------------

     CUMULATIVE VOLUMES      L**3       RATES FOR THIS TIME STEP      L**3/T
     ------------------                 ------------------------

           IN:                                      IN:
           ---                                      ---
             STORAGE =      232936.1406               STORAGE =        1951.8875
       CONSTANT HEAD =           0.0000         CONSTANT HEAD =           0.0000
               WELLS =           0.0000                 WELLS =           0.0000
     HEAD DEP BOUNDS =          81.8404       HEAD DEP BOUNDS =           8.0944

            TOTAL IN =      233017.9844              TOTAL IN =        1959.9818

          OUT:                                     OUT:
          ----                                     ----
             STORAGE =           0.0000               STORAGE =           0.0000
       CONSTANT HEAD =           0.0000         CONSTANT HEAD =           0.0000
               WELLS =           0.0000                 WELLS =           0.0000
     HEAD DEP BOUNDS =      233018.3906       HEAD DEP BOUNDS =        1959.9738

           TOTAL OUT =      233018.3906             TOTAL OUT =        1959.9738

            IN - OUT =          -0.4062              IN - OUT =       8.0566E-03

 PERCENT DISCREPANCY =          -0.00     PERCENT DISCREPANCY =           0.00






         TIME SUMMARY AT END OF TIME STEP   45 IN STRESS PERIOD    2
                    SECONDS     MINUTES      HOURS       DAYS        YEARS
                    -----------------------------------------------------------
   TIME STEP LENGTH  86400.      1440.0      24.000      1.0000     2.73785E-03
 STRESS PERIOD TIME 3.88800E+06  64800.      1080.0      45.000     0.12320    
         TOTAL TIME 3.97440E+06  66240.      1104.0      46.000     0.12594    
1
 
 SOLVING FOR HEAD 

 OUTPUT CONTROL FOR STRESS PERIOD    2   TIME STEP   46
    SAVE HEAD FOR ALL LAYERS
    SAVE DRAWDOWN FOR ALL LAYERS
    SAVE BUDGET
    PRINT HEAD FOR ALL LAYERS
    PRINT BUDGET
 UBDSV1 SAVING "         STORAGE" ON UNIT  53 AT TIME STEP 46, STRESS PERIOD   2
 UBDSV2 SAVING "   CONSTANT HEAD" ON UNIT  53 AT TIME STEP 46, STRESS PERIOD   2
 UBDSV1 SAVING "FLOW RIGHT FACE " ON UNIT  53 AT TIME STEP 46, STRESS PERIOD   2
 UBDSV1 SAVING "FLOW FRONT FACE " ON UNIT  53 AT TIME STEP 46, STRESS PERIOD   2
 UBDSV1 SAVING "FLOW LOWER FACE " ON UNIT  53 AT TIME STEP 46, STRESS PERIOD   2
1
              HEAD IN LAYER   1 AT END OF TIME STEP  46 IN STRESS PERIOD    2
  ---------------------------------------------------------------------------

            1           2           3           4           5           6           7           8           9          10
 ........................................................................................................................
   1    10.00       9.987       9.957       9.878       9.683       9.237       8.316       6.615       3.860      5.8780E-03
   2    10.00       9.987       9.957       9.878       9.683       9.237       8.316       6.615       3.860      5.8780E-03
   3    10.00       9.987       9.957       9.878       9.683       9.237       8.316       6.615       3.860      5.8780E-03
   4    10.00       9.987       9.957       9.878       9.683       9.237       8.316       6.615       3.860      5.8780E-03
   5    10.00       9.987       9.957       9.878       9.683       9.237       8.316       6.615       3.860      5.8780E-03
   6    10.00       9.987       9.957       9.878       9.683       9.237       8.316       6.615       3.860      5.8780E-03
   7    10.00       9.987       9.957       9.878       9.683       9.237       8.316       6.615       3.860      5.8780E-03
   8    10.00       9.987       9.957       9.878       9.683       9.237       8.316       6.615       3.860      5.8780E-03
   9    10.00       9.987       9.957       9.878       9.683       9.237       8.316       6.615       3.860      5.8780E-03
  10    10.00       9.987       9.957       9.878       9.683       9.237       8.316       6.615       3.860      5.8780E-03
1
              HEAD IN LAYER   2 AT END OF TIME STEP  46 IN STRESS PERIOD    2
  ---------------------------------------------------------------------------

            1           2           3           4           5           6           7           8           9          10
 ........................................................................................................................
   1    10.00       9.986       9.954       9.871       9.667       9.207       8.269       6.557       3.808      1.0544E-02
   2    10.00       9.986       9.954       9.871       9.667       9.207       8.269       6.557       3.808      1.0544E-02
   3    10.00       9.986       9.954       9.871       9.667       9.207       8.269       6.557       3.808      1.0544E-02
   4    10.00       9.986       9.954       9.871       9.667       9.207       8.269       6.557       3.808      1.0544E-02
   5    10.00       9.986       9.954       9.871       9.667       9.207       8.269       6.557       3.808      1.0544E-02
   6    10.00       9.986       9.954       9.871       9.667       9.207       8.269       6.557       3.808      1.0544E-02
   7    10.00       9.986       9.954       9.871       9.667       9.207       8.269       6.557       3.808      1.0544E-02
   8    10.00       9.986       9.954       9.871       9.667       9.207       8.269       6.557       3.808      1.0544E-02
   9    10.00       9.986       9.954       9.871       9.667       9.207       8.269       6.557       3.808      1.0544E-02
  10    10.00       9.986       9.954       9.871       9.667       9.207       8.269       6.557       3.808      1.0544E-02
1
              HEAD IN LAYER   3 AT END OF TIME STEP  46 IN STRESS PERIOD    2
  ---------------------------------------------------------------------------

            1           2           3           4           5           6           7           8           9          10
 ........................................................................................................................
   1    10.00       9.985       9.951       9.865       9.656       9.187       8.236       6.513       3.765      1.1178E-02
   2    10.00       9.985       9.951       9.865       9.656       9.187       8.236       6.513       3.765      1.1178E-02
   3    10.00       9.985       9.951       9.865       9.656       9.187       8.236       6.513       3.765      1.1178E-02
   4    10.00       9.985       9.951       9.865       9.656       9.187       8.236       6.513       3.765      1.1178E-02
   5    10.00       9.985       9.951       9.865       9.656       9.187       8.236       6.513       3.765      1.1178E-02
   6    10.00       9.985       9.951       9.865       9.656       9.187       8.236       6.513       3.765      1.1178E-02
   7    10.00       9.985       9.951       9.865       9.656       9.187       8.236       6.513       3.765      1.1178E-02
   8    10.00       9.985       9.951       9.865       9.656       9.187       8.236       6.513       3.765      1.1178E-02
   9    10.00       9.985       9.951       9.865       9.656       9.187       8.236       6.513       3.765      1.1178E-02
  10    10.00       9.985       9.951       9.865       9.656       9.187       8.236       6.513       3.765      1.1178E-02
1
              HEAD IN LAYER   4 AT END OF TIME STEP  46 IN STRESS PERIOD    2
  ---------------------------------------------------------------------------

            1           2           3           4           5           6           7           8           9          10
 ........................................................................................................................
   1    10.00       9.984       9.950       9.863       9.650       9.177       8.220       6.491       3.743      1.1195E-02
   2    10.00       9.984       9.950       9.863       9.650       9.177       8.220       6.491       3.743      1.1195E-02
   3    10.00       9.984       9.950       9.863       9.650       9.177       8.220       6.491       3.743      1.1195E-02
   4    10.00       9.984       9.950       9.863       9.650       9.177       8.220       6.491       3.743      1.1195E-02
   5    10.00       9.984       9.950       9.863       9.650       9.177       8.220       6.491       3.743      1.1195E-02
   6    10.00       9.984       9.950       9.863       9.650       9.177       8.220       6.491       3.743      1.1195E-02
   7    10.00       9.984       9.950       9.863       9.650       9.177       8.220       6.491       3.743      1.1195E-02
   8    10.00       9.984       9.950       9.863       9.650       9.177       8.220       6.491       3.743      1.1195E-02
   9    10.00       9.984       9.950       9.863       9.650       9.177       8.220       6.491       3.743      1.1195E-02
  10    10.00       9.984       9.950       9.863       9.650       9.177       8.220       6.491       3.743      1.1195E-02

 HEAD WILL BE SAVED ON UNIT   51 AT END OF TIME STEP   46, STRESS PERIOD    2

 DRAWDOWN WILL BE SAVED ON UNIT   52 AT END OF TIME STEP   46, STRESS PERIOD    2
1
  VOLUMETRIC BUDGET FOR ENTIRE MODEL AT END OF TIME STEP   46, STRESS PERIOD   2
  ------------------------------------------------------------------------------

     CUMULATIVE VOLUMES      L**3       RATES FOR THIS TIME STEP      L**3/T
     ------------------                 ------------------------

           IN:                                      IN:
           ---                                      ---
             STORAGE =      234867.1562               STORAGE =        1931.0085
       CONSTANT HEAD =           0.0000         CONSTANT HEAD =           0.0000
               WELLS =           0.0000                 WELLS =           0.0000
     HEAD DEP BOUNDS =          90.5623       HEAD DEP BOUNDS =           8.7220

            TOTAL IN =      234957.7188              TOTAL IN =        1939.7305

          OUT:                                     OUT:
          ----                                     ----
             STORAGE =           0.0000               STORAGE =           0.0000
       CONSTANT HEAD =           0.0000         CONSTANT HEAD =           0.0000
               WELLS =           0.0000                 WELLS =           0.0000
     HEAD DEP BOUNDS =      234958.1250       HEAD DEP BOUNDS =        1939.7374

           TOTAL OUT =      234958.1250             TOTAL OUT =        1939.7374

            IN - OUT =          -0.4062              IN - OUT =      -6.9580E-03

 PERCENT DISCREPANCY =          -0.00     PERCENT DISCREPANCY =          -0.00






         TIME SUMMARY AT END OF TIME STEP   46 IN STRESS PERIOD    2
                    SECONDS     MINUTES      HOURS       DAYS        YEARS
                    -----------------------------------------------------------
   TIME STEP LENGTH  86400.      1440.0      24.000      1.0000     2.73785E-03
 STRESS PERIOD TIME 3.97440E+06  66240.      1104.0      46.000     0.12594    
         TOTAL TIME 4.06080E+06  67680.      1128.0      47.000     0.12868    
1
 
 SOLVING FOR HEAD 

 OUTPUT CONTROL FOR STRESS PERIOD    2   TIME STEP   47
    SAVE HEAD FOR ALL LAYERS
    SAVE DRAWDOWN FOR ALL LAYERS
    SAVE BUDGET
    PRINT HEAD FOR ALL LAYERS
    PRINT BUDGET
 UBDSV1 SAVING "         STORAGE" ON UNIT  53 AT TIME STEP 47, STRESS PERIOD   2
 UBDSV2 SAVING "   CONSTANT HEAD" ON UNIT  53 AT TIME STEP 47, STRESS PERIOD   2
 UBDSV1 SAVING "FLOW RIGHT FACE " ON UNIT  53 AT TIME STEP 47, STRESS PERIOD   2
 UBDSV1 SAVING "FLOW FRONT FACE " ON UNIT  53 AT TIME STEP 47, STRESS PERIOD   2
 UBDSV1 SAVING "FLOW LOWER FACE " ON UNIT  53 AT TIME STEP 47, STRESS PERIOD   2
1
              HEAD IN LAYER   1 AT END OF TIME STEP  47 IN STRESS PERIOD    2
  ---------------------------------------------------------------------------

            1           2           3           4           5           6           7           8           9          10
 ........................................................................................................................
   1    10.00       9.986       9.954       9.871       9.669       9.211       8.275       6.566       3.820      5.8112E-03
   2    10.00       9.986       9.954       9.871       9.669       9.211       8.275       6.566       3.820      5.8112E-03
   3    10.00       9.986       9.954       9.871       9.669       9.211       8.275       6.566       3.820      5.8112E-03
   4    10.00       9.986       9.954       9.871       9.669       9.211       8.275       6.566       3.820      5.8112E-03
   5    10.00       9.986       9.954       9.871       9.669       9.211       8.275       6.566       3.820      5.8112E-03
   6    10.00       9.986       9.954       9.871       9.669       9.211       8.275       6.566       3.820      5.8112E-03
   7    10.00       9.986       9.954       9.871       9.669       9.211       8.275       6.566       3.820      5.8112E-03
   8    10.00       9.986       9.954       9.871       9.669       9.211       8.275       6.566       3.820      5.8112E-03
   9    10.00       9.986       9.954       9.871       9.669       9.211       8.275       6.566       3.820      5.8112E-03
  10    10.00       9.986       9.954       9.871       9.669       9.211       8.275       6.566       3.820      5.8112E-03
1
              HEAD IN LAYER   2 AT END OF TIME STEP  47 IN STRESS PERIOD    2
  ---------------------------------------------------------------------------

            1           2           3           4           5           6           7           8           9          10
 ........................................................................................................................
   1    10.00       9.984       9.950       9.863       9.652       9.181       8.228       6.508       3.770      1.0437E-02
   2    10.00       9.984       9.950       9.863       9.652       9.181       8.228       6.508       3.770      1.0437E-02
   3    10.00       9.984       9.950       9.863       9.652       9.181       8.228       6.508       3.770      1.0437E-02
   4    10.00       9.984       9.950       9.863       9.652       9.181       8.228       6.508       3.770      1.0437E-02
   5    10.00       9.984       9.950       9.863       9.652       9.181       8.228       6.508       3.770      1.0437E-02
   6    10.00       9.984       9.950       9.863       9.652       9.181       8.228       6.508       3.770      1.0437E-02
   7    10.00       9.984       9.950       9.863       9.652       9.181       8.228       6.508       3.770      1.0437E-02
   8    10.00       9.984       9.950       9.863       9.652       9.181       8.228       6.508       3.770      1.0437E-02
   9    10.00       9.984       9.950       9.863       9.652       9.181       8.228       6.508       3.770      1.0437E-02
  10    10.00       9.984       9.950       9.863       9.652       9.181       8.228       6.508       3.770      1.0437E-02
1
              HEAD IN LAYER   3 AT END OF TIME STEP  47 IN STRESS PERIOD    2
  ---------------------------------------------------------------------------

            1           2           3           4           5           6           7           8           9          10
 ........................................................................................................................
   1    10.00       9.984       9.948       9.858       9.641       9.160       8.196       6.465       3.728      1.1068E-02
   2    10.00       9.984       9.948       9.858       9.641       9.160       8.196       6.465       3.728      1.1068E-02
   3    10.00       9.984       9.948       9.858       9.641       9.160       8.196       6.465       3.728      1.1068E-02
   4    10.00       9.984       9.948       9.858       9.641       9.160       8.196       6.465       3.728      1.1068E-02
   5    10.00       9.984       9.948       9.858       9.641       9.160       8.196       6.465       3.728      1.1068E-02
   6    10.00       9.984       9.948       9.858       9.641       9.160       8.196       6.465       3.728      1.1068E-02
   7    10.00       9.984       9.948       9.858       9.641       9.160       8.196       6.465       3.728      1.1068E-02
   8    10.00       9.984       9.948       9.858       9.641       9.160       8.196       6.465       3.728      1.1068E-02
   9    10.00       9.984       9.948       9.858       9.641       9.160       8.196       6.465       3.728      1.1068E-02
  10    10.00       9.984       9.948       9.858       9.641       9.160       8.196       6.465       3.728      1.1068E-02
1
              HEAD IN LAYER   4 AT END OF TIME STEP  47 IN STRESS PERIOD    2
  ---------------------------------------------------------------------------

            1           2           3           4           5           6           7           8           9          10
 ........................................................................................................................
   1    10.00       9.983       9.947       9.855       9.635       9.150       8.179       6.444       3.707      1.1085E-02
   2    10.00       9.983       9.947       9.855       9.635       9.150       8.179       6.444       3.707      1.1085E-02
   3    10.00       9.983       9.947       9.855       9.635       9.150       8.179       6.444       3.707      1.1085E-02
   4    10.00       9.983       9.947       9.855       9.635       9.150       8.179       6.444       3.707      1.1085E-02
   5    10.00       9.983       9.947       9.855       9.635       9.150       8.179       6.444       3.707      1.1085E-02
   6    10.00       9.983       9.947       9.855       9.635       9.150       8.179       6.444       3.707      1.1085E-02
   7    10.00       9.983       9.947       9.855       9.635       9.150       8.179       6.444       3.707      1.1085E-02
   8    10.00       9.983       9.947       9.855       9.635       9.150       8.179       6.444       3.707      1.1085E-02
   9    10.00       9.983       9.947       9.855       9.635       9.150       8.179       6.444       3.707      1.1085E-02
  10    10.00       9.983       9.947       9.855       9.635       9.150       8.179       6.444       3.707      1.1085E-02

 HEAD WILL BE SAVED ON UNIT   51 AT END OF TIME STEP   47, STRESS PERIOD    2

 DRAWDOWN WILL BE SAVED ON UNIT   52 AT END OF TIME STEP   47, STRESS PERIOD    2
1
  VOLUMETRIC BUDGET FOR ENTIRE MODEL AT END OF TIME STEP   47, STRESS PERIOD   2
  ------------------------------------------------------------------------------

     CUMULATIVE VOLUMES      L**3       RATES FOR THIS TIME STEP      L**3/T
     ------------------                 ------------------------

           IN:                                      IN:
           ---                                      ---
             STORAGE =      236777.8438               STORAGE =        1910.6864
       CONSTANT HEAD =           0.0000         CONSTANT HEAD =           0.0000
               WELLS =           0.0000                 WELLS =           0.0000
     HEAD DEP BOUNDS =          99.9427       HEAD DEP BOUNDS =           9.3803

            TOTAL IN =      236877.7812              TOTAL IN =        1920.0667

          OUT:                                     OUT:
          ----                                     ----
             STORAGE =           0.0000               STORAGE =           0.0000
       CONSTANT HEAD =           0.0000         CONSTANT HEAD =           0.0000
               WELLS =           0.0000                 WELLS =           0.0000
     HEAD DEP BOUNDS =      236878.2188       HEAD DEP BOUNDS =        1920.0983

           TOTAL OUT =      236878.2188             TOTAL OUT =        1920.0983

            IN - OUT =          -0.4375              IN - OUT =      -3.1616E-02

 PERCENT DISCREPANCY =          -0.00     PERCENT DISCREPANCY =          -0.00






         TIME SUMMARY AT END OF TIME STEP   47 IN STRESS PERIOD    2
                    SECONDS     MINUTES      HOURS       DAYS        YEARS
                    -----------------------------------------------------------
   TIME STEP LENGTH  86400.      1440.0      24.000      1.0000     2.73785E-03
 STRESS PERIOD TIME 4.06080E+06  67680.      1128.0      47.000     0.12868    
         TOTAL TIME 4.14720E+06  69120.      1152.0      48.000     0.13142    
1
 
 SOLVING FOR HEAD 

 OUTPUT CONTROL FOR STRESS PERIOD    2   TIME STEP   48
    SAVE HEAD FOR ALL LAYERS
    SAVE DRAWDOWN FOR ALL LAYERS
    SAVE BUDGET
    PRINT HEAD FOR ALL LAYERS
    PRINT BUDGET
 UBDSV1 SAVING "         STORAGE" ON UNIT  53 AT TIME STEP 48, STRESS PERIOD   2
 UBDSV2 SAVING "   CONSTANT HEAD" ON UNIT  53 AT TIME STEP 48, STRESS PERIOD   2
 UBDSV1 SAVING "FLOW RIGHT FACE " ON UNIT  53 AT TIME STEP 48, STRESS PERIOD   2
 UBDSV1 SAVING "FLOW FRONT FACE " ON UNIT  53 AT TIME STEP 48, STRESS PERIOD   2
 UBDSV1 SAVING "FLOW LOWER FACE " ON UNIT  53 AT TIME STEP 48, STRESS PERIOD   2
1
              HEAD IN LAYER   1 AT END OF TIME STEP  48 IN STRESS PERIOD    2
  ---------------------------------------------------------------------------

            1           2           3           4           5           6           7           8           9          10
 ........................................................................................................................
   1    10.00       9.985       9.951       9.864       9.654       9.184       8.234       6.517       3.782      5.7462E-03
   2    10.00       9.985       9.951       9.864       9.654       9.184       8.234       6.517       3.782      5.7462E-03
   3    10.00       9.985       9.951       9.864       9.654       9.184       8.234       6.517       3.782      5.7462E-03
   4    10.00       9.985       9.951       9.864       9.654       9.184       8.234       6.517       3.782      5.7462E-03
   5    10.00       9.985       9.951       9.864       9.654       9.184       8.234       6.517       3.782      5.7462E-03
   6    10.00       9.985       9.951       9.864       9.654       9.184       8.234       6.517       3.782      5.7462E-03
   7    10.00       9.985       9.951       9.864       9.654       9.184       8.234       6.517       3.782      5.7462E-03
   8    10.00       9.985       9.951       9.864       9.654       9.184       8.234       6.517       3.782      5.7462E-03
   9    10.00       9.985       9.951       9.864       9.654       9.184       8.234       6.517       3.782      5.7462E-03
  10    10.00       9.985       9.951       9.864       9.654       9.184       8.234       6.517       3.782      5.7462E-03
1
              HEAD IN LAYER   2 AT END OF TIME STEP  48 IN STRESS PERIOD    2
  ---------------------------------------------------------------------------

            1           2           3           4           5           6           7           8           9          10
 ........................................................................................................................
   1    10.00       9.983       9.947       9.856       9.637       9.154       8.188       6.461       3.733      1.0333E-02
   2    10.00       9.983       9.947       9.856       9.637       9.154       8.188       6.461       3.733      1.0333E-02
   3    10.00       9.983       9.947       9.856       9.637       9.154       8.188       6.461       3.733      1.0333E-02
   4    10.00       9.983       9.947       9.856       9.637       9.154       8.188       6.461       3.733      1.0333E-02
   5    10.00       9.983       9.947       9.856       9.637       9.154       8.188       6.461       3.733      1.0333E-02
   6    10.00       9.983       9.947       9.856       9.637       9.154       8.188       6.461       3.733      1.0333E-02
   7    10.00       9.983       9.947       9.856       9.637       9.154       8.188       6.461       3.733      1.0333E-02
   8    10.00       9.983       9.947       9.856       9.637       9.154       8.188       6.461       3.733      1.0333E-02
   9    10.00       9.983       9.947       9.856       9.637       9.154       8.188       6.461       3.733      1.0333E-02
  10    10.00       9.983       9.947       9.856       9.637       9.154       8.188       6.461       3.733      1.0333E-02
1
              HEAD IN LAYER   3 AT END OF TIME STEP  48 IN STRESS PERIOD    2
  ---------------------------------------------------------------------------

            1           2           3           4           5           6           7           8           9          10
 ........................................................................................................................
   1    10.00       9.982       9.945       9.850       9.625       9.133       8.156       6.418       3.692      1.0961E-02
   2    10.00       9.982       9.945       9.850       9.625       9.133       8.156       6.418       3.692      1.0961E-02
   3    10.00       9.982       9.945       9.850       9.625       9.133       8.156       6.418       3.692      1.0961E-02
   4    10.00       9.982       9.945       9.850       9.625       9.133       8.156       6.418       3.692      1.0961E-02
   5    10.00       9.982       9.945       9.850       9.625       9.133       8.156       6.418       3.692      1.0961E-02
   6    10.00       9.982       9.945       9.850       9.625       9.133       8.156       6.418       3.692      1.0961E-02
   7    10.00       9.982       9.945       9.850       9.625       9.133       8.156       6.418       3.692      1.0961E-02
   8    10.00       9.982       9.945       9.850       9.625       9.133       8.156       6.418       3.692      1.0961E-02
   9    10.00       9.982       9.945       9.850       9.625       9.133       8.156       6.418       3.692      1.0961E-02
  10    10.00       9.982       9.945       9.850       9.625       9.133       8.156       6.418       3.692      1.0961E-02
1
              HEAD IN LAYER   4 AT END OF TIME STEP  48 IN STRESS PERIOD    2
  ---------------------------------------------------------------------------

            1           2           3           4           5           6           7           8           9          10
 ........................................................................................................................
   1    10.00       9.982       9.943       9.847       9.620       9.123       8.140       6.397       3.671      1.0979E-02
   2    10.00       9.982       9.943       9.847       9.620       9.123       8.140       6.397       3.671      1.0979E-02
   3    10.00       9.982       9.943       9.847       9.620       9.123       8.140       6.397       3.671      1.0979E-02
   4    10.00       9.982       9.943       9.847       9.620       9.123       8.140       6.397       3.671      1.0979E-02
   5    10.00       9.982       9.943       9.847       9.620       9.123       8.140       6.397       3.671      1.0979E-02
   6    10.00       9.982       9.943       9.847       9.620       9.123       8.140       6.397       3.671      1.0979E-02
   7    10.00       9.982       9.943       9.847       9.620       9.123       8.140       6.397       3.671      1.0979E-02
   8    10.00       9.982       9.943       9.847       9.620       9.123       8.140       6.397       3.671      1.0979E-02
   9    10.00       9.982       9.943       9.847       9.620       9.123       8.140       6.397       3.671      1.0979E-02
  10    10.00       9.982       9.943       9.847       9.620       9.123       8.140       6.397       3.671      1.0979E-02

 HEAD WILL BE SAVED ON UNIT   51 AT END OF TIME STEP   48, STRESS PERIOD    2

 DRAWDOWN WILL BE SAVED ON UNIT   52 AT END OF TIME STEP   48, STRESS PERIOD    2
1
  VOLUMETRIC BUDGET FOR ENTIRE MODEL AT END OF TIME STEP   48, STRESS PERIOD   2
  ------------------------------------------------------------------------------

     CUMULATIVE VOLUMES      L**3       RATES FOR THIS TIME STEP      L**3/T
     ------------------                 ------------------------

           IN:                                      IN:
           ---                                      ---
             STORAGE =      238668.7188               STORAGE =        1890.8723
       CONSTANT HEAD =           0.0000         CONSTANT HEAD =           0.0000
               WELLS =           0.0000                 WELLS =           0.0000
     HEAD DEP BOUNDS =         110.0122       HEAD DEP BOUNDS =          10.0696

            TOTAL IN =      238778.7344              TOTAL IN =        1900.9419

          OUT:                                     OUT:
          ----                                     ----
             STORAGE =           0.0000               STORAGE =           0.0000
       CONSTANT HEAD =           0.0000         CONSTANT HEAD =           0.0000
               WELLS =           0.0000                 WELLS =           0.0000
     HEAD DEP BOUNDS =      238779.2188       HEAD DEP BOUNDS =        1901.0040

           TOTAL OUT =      238779.2188             TOTAL OUT =        1901.0040

            IN - OUT =          -0.4844              IN - OUT =      -6.2134E-02

 PERCENT DISCREPANCY =          -0.00     PERCENT DISCREPANCY =          -0.00






         TIME SUMMARY AT END OF TIME STEP   48 IN STRESS PERIOD    2
                    SECONDS     MINUTES      HOURS       DAYS        YEARS
                    -----------------------------------------------------------
   TIME STEP LENGTH  86400.      1440.0      24.000      1.0000     2.73785E-03
 STRESS PERIOD TIME 4.14720E+06  69120.      1152.0      48.000     0.13142    
         TOTAL TIME 4.23360E+06  70560.      1176.0      49.000     0.13415    
1
 
 SOLVING FOR HEAD 

 OUTPUT CONTROL FOR STRESS PERIOD    2   TIME STEP   49
    SAVE HEAD FOR ALL LAYERS
    SAVE DRAWDOWN FOR ALL LAYERS
    SAVE BUDGET
    PRINT HEAD FOR ALL LAYERS
    PRINT BUDGET
 UBDSV1 SAVING "         STORAGE" ON UNIT  53 AT TIME STEP 49, STRESS PERIOD   2
 UBDSV2 SAVING "   CONSTANT HEAD" ON UNIT  53 AT TIME STEP 49, STRESS PERIOD   2
 UBDSV1 SAVING "FLOW RIGHT FACE " ON UNIT  53 AT TIME STEP 49, STRESS PERIOD   2
 UBDSV1 SAVING "FLOW FRONT FACE " ON UNIT  53 AT TIME STEP 49, STRESS PERIOD   2
 UBDSV1 SAVING "FLOW LOWER FACE " ON UNIT  53 AT TIME STEP 49, STRESS PERIOD   2
1
              HEAD IN LAYER   1 AT END OF TIME STEP  49 IN STRESS PERIOD    2
  ---------------------------------------------------------------------------

            1           2           3           4           5           6           7           8           9          10
 ........................................................................................................................
   1    10.00       9.983       9.947       9.856       9.638       9.157       8.194       6.470       3.745      5.6833E-03
   2    10.00       9.983       9.947       9.856       9.638       9.157       8.194       6.470       3.745      5.6833E-03
   3    10.00       9.983       9.947       9.856       9.638       9.157       8.194       6.470       3.745      5.6833E-03
   4    10.00       9.983       9.947       9.856       9.638       9.157       8.194       6.470       3.745      5.6833E-03
   5    10.00       9.983       9.947       9.856       9.638       9.157       8.194       6.470       3.745      5.6833E-03
   6    10.00       9.983       9.947       9.856       9.638       9.157       8.194       6.470       3.745      5.6833E-03
   7    10.00       9.983       9.947       9.856       9.638       9.157       8.194       6.470       3.745      5.6833E-03
   8    10.00       9.983       9.947       9.856       9.638       9.157       8.194       6.470       3.745      5.6833E-03
   9    10.00       9.983       9.947       9.856       9.638       9.157       8.194       6.470       3.745      5.6833E-03
  10    10.00       9.983       9.947       9.856       9.638       9.157       8.194       6.470       3.745      5.6833E-03
1
              HEAD IN LAYER   2 AT END OF TIME STEP  49 IN STRESS PERIOD    2
  ---------------------------------------------------------------------------

            1           2           3           4           5           6           7           8           9          10
 ........................................................................................................................
   1    10.00       9.982       9.944       9.848       9.621       9.127       8.149       6.414       3.697      1.0233E-02
   2    10.00       9.982       9.944       9.848       9.621       9.127       8.149       6.414       3.697      1.0233E-02
   3    10.00       9.982       9.944       9.848       9.621       9.127       8.149       6.414       3.697      1.0233E-02
   4    10.00       9.982       9.944       9.848       9.621       9.127       8.149       6.414       3.697      1.0233E-02
   5    10.00       9.982       9.944       9.848       9.621       9.127       8.149       6.414       3.697      1.0233E-02
   6    10.00       9.982       9.944       9.848       9.621       9.127       8.149       6.414       3.697      1.0233E-02
   7    10.00       9.982       9.944       9.848       9.621       9.127       8.149       6.414       3.697      1.0233E-02
   8    10.00       9.982       9.944       9.848       9.621       9.127       8.149       6.414       3.697      1.0233E-02
   9    10.00       9.982       9.944       9.848       9.621       9.127       8.149       6.414       3.697      1.0233E-02
  10    10.00       9.982       9.944       9.848       9.621       9.127       8.149       6.414       3.697      1.0233E-02
1
              HEAD IN LAYER   3 AT END OF TIME STEP  49 IN STRESS PERIOD    2
  ---------------------------------------------------------------------------

            1           2           3           4           5           6           7           8           9          10
 ........................................................................................................................
   1    10.00       9.981       9.941       9.842       9.610       9.106       8.116       6.373       3.657      1.0857E-02
   2    10.00       9.981       9.941       9.842       9.610       9.106       8.116       6.373       3.657      1.0857E-02
   3    10.00       9.981       9.941       9.842       9.610       9.106       8.116       6.373       3.657      1.0857E-02
   4    10.00       9.981       9.941       9.842       9.610       9.106       8.116       6.373       3.657      1.0857E-02
   5    10.00       9.981       9.941       9.842       9.610       9.106       8.116       6.373       3.657      1.0857E-02
   6    10.00       9.981       9.941       9.842       9.610       9.106       8.116       6.373       3.657      1.0857E-02
   7    10.00       9.981       9.941       9.842       9.610       9.106       8.116       6.373       3.657      1.0857E-02
   8    10.00       9.981       9.941       9.842       9.610       9.106       8.116       6.373       3.657      1.0857E-02
   9    10.00       9.981       9.941       9.842       9.610       9.106       8.116       6.373       3.657      1.0857E-02
  10    10.00       9.981       9.941       9.842       9.610       9.106       8.116       6.373       3.657      1.0857E-02
1
              HEAD IN LAYER   4 AT END OF TIME STEP  49 IN STRESS PERIOD    2
  ---------------------------------------------------------------------------

            1           2           3           4           5           6           7           8           9          10
 ........................................................................................................................
   1    10.00       9.981       9.940       9.840       9.604       9.096       8.100       6.352       3.637      1.0876E-02
   2    10.00       9.981       9.940       9.840       9.604       9.096       8.100       6.352       3.637      1.0876E-02
   3    10.00       9.981       9.940       9.840       9.604       9.096       8.100       6.352       3.637      1.0876E-02
   4    10.00       9.981       9.940       9.840       9.604       9.096       8.100       6.352       3.637      1.0876E-02
   5    10.00       9.981       9.940       9.840       9.604       9.096       8.100       6.352       3.637      1.0876E-02
   6    10.00       9.981       9.940       9.840       9.604       9.096       8.100       6.352       3.637      1.0876E-02
   7    10.00       9.981       9.940       9.840       9.604       9.096       8.100       6.352       3.637      1.0876E-02
   8    10.00       9.981       9.940       9.840       9.604       9.096       8.100       6.352       3.637      1.0876E-02
   9    10.00       9.981       9.940       9.840       9.604       9.096       8.100       6.352       3.637      1.0876E-02
  10    10.00       9.981       9.940       9.840       9.604       9.096       8.100       6.352       3.637      1.0876E-02

 HEAD WILL BE SAVED ON UNIT   51 AT END OF TIME STEP   49, STRESS PERIOD    2

 DRAWDOWN WILL BE SAVED ON UNIT   52 AT END OF TIME STEP   49, STRESS PERIOD    2
1
  VOLUMETRIC BUDGET FOR ENTIRE MODEL AT END OF TIME STEP   49, STRESS PERIOD   2
  ------------------------------------------------------------------------------

     CUMULATIVE VOLUMES      L**3       RATES FOR THIS TIME STEP      L**3/T
     ------------------                 ------------------------

           IN:                                      IN:
           ---                                      ---
             STORAGE =      240540.3125               STORAGE =        1871.5944
       CONSTANT HEAD =           0.0000         CONSTANT HEAD =           0.0000
               WELLS =           0.0000                 WELLS =           0.0000
     HEAD DEP BOUNDS =         120.8708       HEAD DEP BOUNDS =          10.8586

            TOTAL IN =      240661.1875              TOTAL IN =        1882.4530

          OUT:                                     OUT:
          ----                                     ----
             STORAGE =           0.0000               STORAGE =           0.0000
       CONSTANT HEAD =           0.0000         CONSTANT HEAD =           0.0000
               WELLS =           0.0000                 WELLS =           0.0000
     HEAD DEP BOUNDS =      240661.6875       HEAD DEP BOUNDS =        1882.4644

           TOTAL OUT =      240661.6875             TOTAL OUT =        1882.4644

            IN - OUT =          -0.5000              IN - OUT =      -1.1353E-02

 PERCENT DISCREPANCY =          -0.00     PERCENT DISCREPANCY =          -0.00






         TIME SUMMARY AT END OF TIME STEP   49 IN STRESS PERIOD    2
                    SECONDS     MINUTES      HOURS       DAYS        YEARS
                    -----------------------------------------------------------
   TIME STEP LENGTH  86400.      1440.0      24.000      1.0000     2.73785E-03
 STRESS PERIOD TIME 4.23360E+06  70560.      1176.0      49.000     0.13415    
         TOTAL TIME 4.32000E+06  72000.      1200.0      50.000     0.13689    
1
 
 SOLVING FOR HEAD 

 OUTPUT CONTROL FOR STRESS PERIOD    2   TIME STEP   50
    SAVE HEAD FOR ALL LAYERS
    SAVE DRAWDOWN FOR ALL LAYERS
    SAVE BUDGET
    PRINT HEAD FOR ALL LAYERS
    PRINT BUDGET
 UBDSV1 SAVING "         STORAGE" ON UNIT  53 AT TIME STEP 50, STRESS PERIOD   2
 UBDSV2 SAVING "   CONSTANT HEAD" ON UNIT  53 AT TIME STEP 50, STRESS PERIOD   2
 UBDSV1 SAVING "FLOW RIGHT FACE " ON UNIT  53 AT TIME STEP 50, STRESS PERIOD   2
 UBDSV1 SAVING "FLOW FRONT FACE " ON UNIT  53 AT TIME STEP 50, STRESS PERIOD   2
 UBDSV1 SAVING "FLOW LOWER FACE " ON UNIT  53 AT TIME STEP 50, STRESS PERIOD   2
1
              HEAD IN LAYER   1 AT END OF TIME STEP  50 IN STRESS PERIOD    2
  ---------------------------------------------------------------------------

            1           2           3           4           5           6           7           8           9          10
 ........................................................................................................................
   1    10.00       9.982       9.944       9.849       9.623       9.130       8.154       6.423       3.708      5.6222E-03
   2    10.00       9.982       9.944       9.849       9.623       9.130       8.154       6.423       3.708      5.6222E-03
   3    10.00       9.982       9.944       9.849       9.623       9.130       8.154       6.423       3.708      5.6222E-03
   4    10.00       9.982       9.944       9.849       9.623       9.130       8.154       6.423       3.708      5.6222E-03
   5    10.00       9.982       9.944       9.849       9.623       9.130       8.154       6.423       3.708      5.6222E-03
   6    10.00       9.982       9.944       9.849       9.623       9.130       8.154       6.423       3.708      5.6222E-03
   7    10.00       9.982       9.944       9.849       9.623       9.130       8.154       6.423       3.708      5.6222E-03
   8    10.00       9.982       9.944       9.849       9.623       9.130       8.154       6.423       3.708      5.6222E-03
   9    10.00       9.982       9.944       9.849       9.623       9.130       8.154       6.423       3.708      5.6222E-03
  10    10.00       9.982       9.944       9.849       9.623       9.130       8.154       6.423       3.708      5.6222E-03
1
              HEAD IN LAYER   2 AT END OF TIME STEP  50 IN STRESS PERIOD    2
  ---------------------------------------------------------------------------

            1           2           3           4           5           6           7           8           9          10
 ........................................................................................................................
   1    10.00       9.981       9.940       9.840       9.606       9.100       8.109       6.369       3.662      1.0135E-02
   2    10.00       9.981       9.940       9.840       9.606       9.100       8.109       6.369       3.662      1.0135E-02
   3    10.00       9.981       9.940       9.840       9.606       9.100       8.109       6.369       3.662      1.0135E-02
   4    10.00       9.981       9.940       9.840       9.606       9.100       8.109       6.369       3.662      1.0135E-02
   5    10.00       9.981       9.940       9.840       9.606       9.100       8.109       6.369       3.662      1.0135E-02
   6    10.00       9.981       9.940       9.840       9.606       9.100       8.109       6.369       3.662      1.0135E-02
   7    10.00       9.981       9.940       9.840       9.606       9.100       8.109       6.369       3.662      1.0135E-02
   8    10.00       9.981       9.940       9.840       9.606       9.100       8.109       6.369       3.662      1.0135E-02
   9    10.00       9.981       9.940       9.840       9.606       9.100       8.109       6.369       3.662      1.0135E-02
  10    10.00       9.981       9.940       9.840       9.606       9.100       8.109       6.369       3.662      1.0135E-02
1
              HEAD IN LAYER   3 AT END OF TIME STEP  50 IN STRESS PERIOD    2
  ---------------------------------------------------------------------------

            1           2           3           4           5           6           7           8           9          10
 ........................................................................................................................
   1   10.000       9.980       9.937       9.834       9.594       9.079       8.077       6.328       3.623      1.0756E-02
   2   10.000       9.980       9.937       9.834       9.594       9.079       8.077       6.328       3.623      1.0756E-02
   3   10.000       9.980       9.937       9.834       9.594       9.079       8.077       6.328       3.623      1.0756E-02
   4   10.000       9.980       9.937       9.834       9.594       9.079       8.077       6.328       3.623      1.0756E-02
   5   10.000       9.980       9.937       9.834       9.594       9.079       8.077       6.328       3.623      1.0756E-02
   6   10.000       9.980       9.937       9.834       9.594       9.079       8.077       6.328       3.623      1.0756E-02
   7   10.000       9.980       9.937       9.834       9.594       9.079       8.077       6.328       3.623      1.0756E-02
   8   10.000       9.980       9.937       9.834       9.594       9.079       8.077       6.328       3.623      1.0756E-02
   9   10.000       9.980       9.937       9.834       9.594       9.079       8.077       6.328       3.623      1.0756E-02
  10   10.000       9.980       9.937       9.834       9.594       9.079       8.077       6.328       3.623      1.0756E-02
1
              HEAD IN LAYER   4 AT END OF TIME STEP  50 IN STRESS PERIOD    2
  ---------------------------------------------------------------------------

            1           2           3           4           5           6           7           8           9          10
 ........................................................................................................................
   1   10.000       9.979       9.936       9.831       9.588       9.069       8.061       6.307       3.603      1.0776E-02
   2   10.000       9.979       9.936       9.831       9.588       9.069       8.061       6.307       3.603      1.0776E-02
   3   10.000       9.979       9.936       9.831       9.588       9.069       8.061       6.307       3.603      1.0776E-02
   4   10.000       9.979       9.936       9.831       9.588       9.069       8.061       6.307       3.603      1.0776E-02
   5   10.000       9.979       9.936       9.831       9.588       9.069       8.061       6.307       3.603      1.0776E-02
   6   10.000       9.979       9.936       9.831       9.588       9.069       8.061       6.307       3.603      1.0776E-02
   7   10.000       9.979       9.936       9.831       9.588       9.069       8.061       6.307       3.603      1.0776E-02
   8   10.000       9.979       9.936       9.831       9.588       9.069       8.061       6.307       3.603      1.0776E-02
   9   10.000       9.979       9.936       9.831       9.588       9.069       8.061       6.307       3.603      1.0776E-02
  10   10.000       9.979       9.936       9.831       9.588       9.069       8.061       6.307       3.603      1.0776E-02

 HEAD WILL BE SAVED ON UNIT   51 AT END OF TIME STEP   50, STRESS PERIOD    2

 DRAWDOWN WILL BE SAVED ON UNIT   52 AT END OF TIME STEP   50, STRESS PERIOD    2
1
  VOLUMETRIC BUDGET FOR ENTIRE MODEL AT END OF TIME STEP   50, STRESS PERIOD   2
  ------------------------------------------------------------------------------

     CUMULATIVE VOLUMES      L**3       RATES FOR THIS TIME STEP      L**3/T
     ------------------                 ------------------------

           IN:                                      IN:
           ---                                      ---
             STORAGE =      242393.0781               STORAGE =        1852.7679
       CONSTANT HEAD =           0.0000         CONSTANT HEAD =           0.0000
               WELLS =           0.0000                 WELLS =           0.0000
     HEAD DEP BOUNDS =         132.4826       HEAD DEP BOUNDS =          11.6118

            TOTAL IN =      242525.5625              TOTAL IN =        1864.3796

          OUT:                                     OUT:
          ----                                     ----
             STORAGE =           0.0000               STORAGE =           0.0000
       CONSTANT HEAD =           0.0000         CONSTANT HEAD =           0.0000
               WELLS =           0.0000                 WELLS =           0.0000
     HEAD DEP BOUNDS =      242526.1250       HEAD DEP BOUNDS =        1864.4305

           TOTAL OUT =      242526.1250             TOTAL OUT =        1864.4305

            IN - OUT =          -0.5625              IN - OUT =      -5.0903E-02

 PERCENT DISCREPANCY =          -0.00     PERCENT DISCREPANCY =          -0.00






         TIME SUMMARY AT END OF TIME STEP   50 IN STRESS PERIOD    2
                    SECONDS     MINUTES      HOURS       DAYS        YEARS
                    -----------------------------------------------------------
   TIME STEP LENGTH  86400.      1440.0      24.000      1.0000     2.73785E-03
 STRESS PERIOD TIME 4.32000E+06  72000.      1200.0      50.000     0.13689    
         TOTAL TIME 4.40640E+06  73440.      1224.0      51.000     0.13963    
1
 
 SOLVING FOR HEAD 

 OUTPUT CONTROL FOR STRESS PERIOD    2   TIME STEP   51
    SAVE HEAD FOR ALL LAYERS
    SAVE DRAWDOWN FOR ALL LAYERS
    SAVE BUDGET
    PRINT HEAD FOR ALL LAYERS
    PRINT BUDGET
 UBDSV1 SAVING "         STORAGE" ON UNIT  53 AT TIME STEP 51, STRESS PERIOD   2
 UBDSV2 SAVING "   CONSTANT HEAD" ON UNIT  53 AT TIME STEP 51, STRESS PERIOD   2
 UBDSV1 SAVING "FLOW RIGHT FACE " ON UNIT  53 AT TIME STEP 51, STRESS PERIOD   2
 UBDSV1 SAVING "FLOW FRONT FACE " ON UNIT  53 AT TIME STEP 51, STRESS PERIOD   2
 UBDSV1 SAVING "FLOW LOWER FACE " ON UNIT  53 AT TIME STEP 51, STRESS PERIOD   2
1
              HEAD IN LAYER   1 AT END OF TIME STEP  51 IN STRESS PERIOD    2
  ---------------------------------------------------------------------------

            1           2           3           4           5           6           7           8           9          10
 ........................................................................................................................
   1    10.00       9.981       9.940       9.841       9.607       9.103       8.115       6.377       3.673      5.5630E-03
   2    10.00       9.981       9.940       9.841       9.607       9.103       8.115       6.377       3.673      5.5630E-03
   3    10.00       9.981       9.940       9.841       9.607       9.103       8.115       6.377       3.673      5.5630E-03
   4    10.00       9.981       9.940       9.841       9.607       9.103       8.115       6.377       3.673      5.5630E-03
   5    10.00       9.981       9.940       9.841       9.607       9.103       8.115       6.377       3.673      5.5630E-03
   6    10.00       9.981       9.940       9.841       9.607       9.103       8.115       6.377       3.673      5.5630E-03
   7    10.00       9.981       9.940       9.841       9.607       9.103       8.115       6.377       3.673      5.5630E-03
   8    10.00       9.981       9.940       9.841       9.607       9.103       8.115       6.377       3.673      5.5630E-03
   9    10.00       9.981       9.940       9.841       9.607       9.103       8.115       6.377       3.673      5.5630E-03
  10    10.00       9.981       9.940       9.841       9.607       9.103       8.115       6.377       3.673      5.5630E-03
1
              HEAD IN LAYER   2 AT END OF TIME STEP  51 IN STRESS PERIOD    2
  ---------------------------------------------------------------------------

            1           2           3           4           5           6           7           8           9          10
 ........................................................................................................................
   1   10.000       9.979       9.936       9.832       9.590       9.073       8.070       6.324       3.627      1.0040E-02
   2   10.000       9.979       9.936       9.832       9.590       9.073       8.070       6.324       3.627      1.0040E-02
   3   10.000       9.979       9.936       9.832       9.590       9.073       8.070       6.324       3.627      1.0040E-02
   4   10.000       9.979       9.936       9.832       9.590       9.073       8.070       6.324       3.627      1.0040E-02
   5   10.000       9.979       9.936       9.832       9.590       9.073       8.070       6.324       3.627      1.0040E-02
   6   10.000       9.979       9.936       9.832       9.590       9.073       8.070       6.324       3.627      1.0040E-02
   7   10.000       9.979       9.936       9.832       9.590       9.073       8.070       6.324       3.627      1.0040E-02
   8   10.000       9.979       9.936       9.832       9.590       9.073       8.070       6.324       3.627      1.0040E-02
   9   10.000       9.979       9.936       9.832       9.590       9.073       8.070       6.324       3.627      1.0040E-02
  10   10.000       9.979       9.936       9.832       9.590       9.073       8.070       6.324       3.627      1.0040E-02
1
              HEAD IN LAYER   3 AT END OF TIME STEP  51 IN STRESS PERIOD    2
  ---------------------------------------------------------------------------

            1           2           3           4           5           6           7           8           9          10
 ........................................................................................................................
   1   10.000       9.978       9.934       9.826       9.578       9.052       8.039       6.284       3.590      1.0657E-02
   2   10.000       9.978       9.934       9.826       9.578       9.052       8.039       6.284       3.590      1.0657E-02
   3   10.000       9.978       9.934       9.826       9.578       9.052       8.039       6.284       3.590      1.0657E-02
   4   10.000       9.978       9.934       9.826       9.578       9.052       8.039       6.284       3.590      1.0657E-02
   5   10.000       9.978       9.934       9.826       9.578       9.052       8.039       6.284       3.590      1.0657E-02
   6   10.000       9.978       9.934       9.826       9.578       9.052       8.039       6.284       3.590      1.0657E-02
   7   10.000       9.978       9.934       9.826       9.578       9.052       8.039       6.284       3.590      1.0657E-02
   8   10.000       9.978       9.934       9.826       9.578       9.052       8.039       6.284       3.590      1.0657E-02
   9   10.000       9.978       9.934       9.826       9.578       9.052       8.039       6.284       3.590      1.0657E-02
  10   10.000       9.978       9.934       9.826       9.578       9.052       8.039       6.284       3.590      1.0657E-02
1
              HEAD IN LAYER   4 AT END OF TIME STEP  51 IN STRESS PERIOD    2
  ---------------------------------------------------------------------------

            1           2           3           4           5           6           7           8           9          10
 ........................................................................................................................
   1   10.000       9.978       9.932       9.823       9.572       9.042       8.023       6.264       3.571      1.0678E-02
   2   10.000       9.978       9.932       9.823       9.572       9.042       8.023       6.264       3.571      1.0678E-02
   3   10.000       9.978       9.932       9.823       9.572       9.042       8.023       6.264       3.571      1.0678E-02
   4   10.000       9.978       9.932       9.823       9.572       9.042       8.023       6.264       3.571      1.0678E-02
   5   10.000       9.978       9.932       9.823       9.572       9.042       8.023       6.264       3.571      1.0678E-02
   6   10.000       9.978       9.932       9.823       9.572       9.042       8.023       6.264       3.571      1.0678E-02
   7   10.000       9.978       9.932       9.823       9.572       9.042       8.023       6.264       3.571      1.0678E-02
   8   10.000       9.978       9.932       9.823       9.572       9.042       8.023       6.264       3.571      1.0678E-02
   9   10.000       9.978       9.932       9.823       9.572       9.042       8.023       6.264       3.571      1.0678E-02
  10   10.000       9.978       9.932       9.823       9.572       9.042       8.023       6.264       3.571      1.0678E-02

 HEAD WILL BE SAVED ON UNIT   51 AT END OF TIME STEP   51, STRESS PERIOD    2

 DRAWDOWN WILL BE SAVED ON UNIT   52 AT END OF TIME STEP   51, STRESS PERIOD    2
1
  VOLUMETRIC BUDGET FOR ENTIRE MODEL AT END OF TIME STEP   51, STRESS PERIOD   2
  ------------------------------------------------------------------------------

     CUMULATIVE VOLUMES      L**3       RATES FOR THIS TIME STEP      L**3/T
     ------------------                 ------------------------

           IN:                                      IN:
           ---                                      ---
             STORAGE =      244227.5000               STORAGE =        1834.4263
       CONSTANT HEAD =           0.0000         CONSTANT HEAD =           0.0000
               WELLS =           0.0000                 WELLS =           0.0000
     HEAD DEP BOUNDS =         144.9472       HEAD DEP BOUNDS =          12.4647

            TOTAL IN =      244372.4531              TOTAL IN =        1846.8910

          OUT:                                     OUT:
          ----                                     ----
             STORAGE =           0.0000               STORAGE =           0.0000
       CONSTANT HEAD =           0.0000         CONSTANT HEAD =           0.0000
               WELLS =           0.0000                 WELLS =           0.0000
     HEAD DEP BOUNDS =      244373.0312       HEAD DEP BOUNDS =        1846.8987

           TOTAL OUT =      244373.0312             TOTAL OUT =        1846.8987

            IN - OUT =          -0.5781              IN - OUT =      -7.6904E-03

 PERCENT DISCREPANCY =          -0.00     PERCENT DISCREPANCY =          -0.00






         TIME SUMMARY AT END OF TIME STEP   51 IN STRESS PERIOD    2
                    SECONDS     MINUTES      HOURS       DAYS        YEARS
                    -----------------------------------------------------------
   TIME STEP LENGTH  86400.      1440.0      24.000      1.0000     2.73785E-03
 STRESS PERIOD TIME 4.40640E+06  73440.      1224.0      51.000     0.13963    
         TOTAL TIME 4.49280E+06  74880.      1248.0      52.000     0.14237    
1
 
 SOLVING FOR HEAD 

 OUTPUT CONTROL FOR STRESS PERIOD    2   TIME STEP   52
    SAVE HEAD FOR ALL LAYERS
    SAVE DRAWDOWN FOR ALL LAYERS
    SAVE BUDGET
    PRINT HEAD FOR ALL LAYERS
    PRINT BUDGET
 UBDSV1 SAVING "         STORAGE" ON UNIT  53 AT TIME STEP 52, STRESS PERIOD   2
 UBDSV2 SAVING "   CONSTANT HEAD" ON UNIT  53 AT TIME STEP 52, STRESS PERIOD   2
 UBDSV1 SAVING "FLOW RIGHT FACE " ON UNIT  53 AT TIME STEP 52, STRESS PERIOD   2
 UBDSV1 SAVING "FLOW FRONT FACE " ON UNIT  53 AT TIME STEP 52, STRESS PERIOD   2
 UBDSV1 SAVING "FLOW LOWER FACE " ON UNIT  53 AT TIME STEP 52, STRESS PERIOD   2
1
              HEAD IN LAYER   1 AT END OF TIME STEP  52 IN STRESS PERIOD    2
  ---------------------------------------------------------------------------

            1           2           3           4           5           6           7           8           9          10
 ........................................................................................................................
   1   10.000       9.979       9.937       9.833       9.592       9.076       8.076       6.332       3.639      5.5055E-03
   2   10.000       9.979       9.937       9.833       9.592       9.076       8.076       6.332       3.639      5.5055E-03
   3   10.000       9.979       9.937       9.833       9.592       9.076       8.076       6.332       3.639      5.5055E-03
   4   10.000       9.979       9.937       9.833       9.592       9.076       8.076       6.332       3.639      5.5055E-03
   5   10.000       9.979       9.937       9.833       9.592       9.076       8.076       6.332       3.639      5.5055E-03
   6   10.000       9.979       9.937       9.833       9.592       9.076       8.076       6.332       3.639      5.5055E-03
   7   10.000       9.979       9.937       9.833       9.592       9.076       8.076       6.332       3.639      5.5055E-03
   8   10.000       9.979       9.937       9.833       9.592       9.076       8.076       6.332       3.639      5.5055E-03
   9   10.000       9.979       9.937       9.833       9.592       9.076       8.076       6.332       3.639      5.5055E-03
  10   10.000       9.979       9.937       9.833       9.592       9.076       8.076       6.332       3.639      5.5055E-03
1
              HEAD IN LAYER   2 AT END OF TIME STEP  52 IN STRESS PERIOD    2
  ---------------------------------------------------------------------------

            1           2           3           4           5           6           7           8           9          10
 ........................................................................................................................
   1   10.000       9.978       9.933       9.824       9.574       9.046       8.032       6.280       3.594      9.9472E-03
   2   10.000       9.978       9.933       9.824       9.574       9.046       8.032       6.280       3.594      9.9472E-03
   3   10.000       9.978       9.933       9.824       9.574       9.046       8.032       6.280       3.594      9.9472E-03
   4   10.000       9.978       9.933       9.824       9.574       9.046       8.032       6.280       3.594      9.9472E-03
   5   10.000       9.978       9.933       9.824       9.574       9.046       8.032       6.280       3.594      9.9472E-03
   6   10.000       9.978       9.933       9.824       9.574       9.046       8.032       6.280       3.594      9.9472E-03
   7   10.000       9.978       9.933       9.824       9.574       9.046       8.032       6.280       3.594      9.9472E-03
   8   10.000       9.978       9.933       9.824       9.574       9.046       8.032       6.280       3.594      9.9472E-03
   9   10.000       9.978       9.933       9.824       9.574       9.046       8.032       6.280       3.594      9.9472E-03
  10   10.000       9.978       9.933       9.824       9.574       9.046       8.032       6.280       3.594      9.9472E-03
1
              HEAD IN LAYER   3 AT END OF TIME STEP  52 IN STRESS PERIOD    2
  ---------------------------------------------------------------------------

            1           2           3           4           5           6           7           8           9          10
 ........................................................................................................................
   1   10.000       9.977       9.930       9.818       9.562       9.025       8.000       6.240       3.557      1.0561E-02
   2   10.000       9.977       9.930       9.818       9.562       9.025       8.000       6.240       3.557      1.0561E-02
   3   10.000       9.977       9.930       9.818       9.562       9.025       8.000       6.240       3.557      1.0561E-02
   4   10.000       9.977       9.930       9.818       9.562       9.025       8.000       6.240       3.557      1.0561E-02
   5   10.000       9.977       9.930       9.818       9.562       9.025       8.000       6.240       3.557      1.0561E-02
   6   10.000       9.977       9.930       9.818       9.562       9.025       8.000       6.240       3.557      1.0561E-02
   7   10.000       9.977       9.930       9.818       9.562       9.025       8.000       6.240       3.557      1.0561E-02
   8   10.000       9.977       9.930       9.818       9.562       9.025       8.000       6.240       3.557      1.0561E-02
   9   10.000       9.977       9.930       9.818       9.562       9.025       8.000       6.240       3.557      1.0561E-02
  10   10.000       9.977       9.930       9.818       9.562       9.025       8.000       6.240       3.557      1.0561E-02
1
              HEAD IN LAYER   4 AT END OF TIME STEP  52 IN STRESS PERIOD    2
  ---------------------------------------------------------------------------

            1           2           3           4           5           6           7           8           9          10
 ........................................................................................................................
   1   10.000       9.976       9.928       9.815       9.556       9.015       7.985       6.221       3.539      1.0583E-02
   2   10.000       9.976       9.928       9.815       9.556       9.015       7.985       6.221       3.539      1.0583E-02
   3   10.000       9.976       9.928       9.815       9.556       9.015       7.985       6.221       3.539      1.0583E-02
   4   10.000       9.976       9.928       9.815       9.556       9.015       7.985       6.221       3.539      1.0583E-02
   5   10.000       9.976       9.928       9.815       9.556       9.015       7.985       6.221       3.539      1.0583E-02
   6   10.000       9.976       9.928       9.815       9.556       9.015       7.985       6.221       3.539      1.0583E-02
   7   10.000       9.976       9.928       9.815       9.556       9.015       7.985       6.221       3.539      1.0583E-02
   8   10.000       9.976       9.928       9.815       9.556       9.015       7.985       6.221       3.539      1.0583E-02
   9   10.000       9.976       9.928       9.815       9.556       9.015       7.985       6.221       3.539      1.0583E-02
  10   10.000       9.976       9.928       9.815       9.556       9.015       7.985       6.221       3.539      1.0583E-02

 HEAD WILL BE SAVED ON UNIT   51 AT END OF TIME STEP   52, STRESS PERIOD    2

 DRAWDOWN WILL BE SAVED ON UNIT   52 AT END OF TIME STEP   52, STRESS PERIOD    2
1
  VOLUMETRIC BUDGET FOR ENTIRE MODEL AT END OF TIME STEP   52, STRESS PERIOD   2
  ------------------------------------------------------------------------------

     CUMULATIVE VOLUMES      L**3       RATES FOR THIS TIME STEP      L**3/T
     ------------------                 ------------------------

           IN:                                      IN:
           ---                                      ---
             STORAGE =      246044.0156               STORAGE =        1816.5232
       CONSTANT HEAD =           0.0000         CONSTANT HEAD =           0.0000
               WELLS =           0.0000                 WELLS =           0.0000
     HEAD DEP BOUNDS =         158.2295       HEAD DEP BOUNDS =          13.2823

            TOTAL IN =      246202.2500              TOTAL IN =        1829.8054

          OUT:                                     OUT:
          ----                                     ----
             STORAGE =           0.0000               STORAGE =           0.0000
       CONSTANT HEAD =           0.0000         CONSTANT HEAD =           0.0000
               WELLS =           0.0000                 WELLS =           0.0000
     HEAD DEP BOUNDS =      246202.8594       HEAD DEP BOUNDS =        1829.8308

           TOTAL OUT =      246202.8594             TOTAL OUT =        1829.8308

            IN - OUT =          -0.6094              IN - OUT =      -2.5391E-02

 PERCENT DISCREPANCY =          -0.00     PERCENT DISCREPANCY =          -0.00






         TIME SUMMARY AT END OF TIME STEP   52 IN STRESS PERIOD    2
                    SECONDS     MINUTES      HOURS       DAYS        YEARS
                    -----------------------------------------------------------
   TIME STEP LENGTH  86400.      1440.0      24.000      1.0000     2.73785E-03
 STRESS PERIOD TIME 4.49280E+06  74880.      1248.0      52.000     0.14237    
         TOTAL TIME 4.57920E+06  76320.      1272.0      53.000     0.14511    
1
 
 SOLVING FOR HEAD 

 OUTPUT CONTROL FOR STRESS PERIOD    2   TIME STEP   53
    SAVE HEAD FOR ALL LAYERS
    SAVE DRAWDOWN FOR ALL LAYERS
    SAVE BUDGET
    PRINT HEAD FOR ALL LAYERS
    PRINT BUDGET
 UBDSV1 SAVING "         STORAGE" ON UNIT  53 AT TIME STEP 53, STRESS PERIOD   2
 UBDSV2 SAVING "   CONSTANT HEAD" ON UNIT  53 AT TIME STEP 53, STRESS PERIOD   2
 UBDSV1 SAVING "FLOW RIGHT FACE " ON UNIT  53 AT TIME STEP 53, STRESS PERIOD   2
 UBDSV1 SAVING "FLOW FRONT FACE " ON UNIT  53 AT TIME STEP 53, STRESS PERIOD   2
 UBDSV1 SAVING "FLOW LOWER FACE " ON UNIT  53 AT TIME STEP 53, STRESS PERIOD   2
1
              HEAD IN LAYER   1 AT END OF TIME STEP  53 IN STRESS PERIOD    2
  ---------------------------------------------------------------------------

            1           2           3           4           5           6           7           8           9          10
 ........................................................................................................................
   1   10.000       9.978       9.933       9.825       9.576       9.049       8.037       6.288       3.605      5.4497E-03
   2   10.000       9.978       9.933       9.825       9.576       9.049       8.037       6.288       3.605      5.4497E-03
   3   10.000       9.978       9.933       9.825       9.576       9.049       8.037       6.288       3.605      5.4497E-03
   4   10.000       9.978       9.933       9.825       9.576       9.049       8.037       6.288       3.605      5.4497E-03
   5   10.000       9.978       9.933       9.825       9.576       9.049       8.037       6.288       3.605      5.4497E-03
   6   10.000       9.978       9.933       9.825       9.576       9.049       8.037       6.288       3.605      5.4497E-03
   7   10.000       9.978       9.933       9.825       9.576       9.049       8.037       6.288       3.605      5.4497E-03
   8   10.000       9.978       9.933       9.825       9.576       9.049       8.037       6.288       3.605      5.4497E-03
   9   10.000       9.978       9.933       9.825       9.576       9.049       8.037       6.288       3.605      5.4497E-03
  10   10.000       9.978       9.933       9.825       9.576       9.049       8.037       6.288       3.605      5.4497E-03
1
              HEAD IN LAYER   2 AT END OF TIME STEP  53 IN STRESS PERIOD    2
  ---------------------------------------------------------------------------

            1           2           3           4           5           6           7           8           9          10
 ........................................................................................................................
   1   10.000       9.976       9.929       9.815       9.558       9.019       7.994       6.237       3.562      9.8571E-03
   2   10.000       9.976       9.929       9.815       9.558       9.019       7.994       6.237       3.562      9.8571E-03
   3   10.000       9.976       9.929       9.815       9.558       9.019       7.994       6.237       3.562      9.8571E-03
   4   10.000       9.976       9.929       9.815       9.558       9.019       7.994       6.237       3.562      9.8571E-03
   5   10.000       9.976       9.929       9.815       9.558       9.019       7.994       6.237       3.562      9.8571E-03
   6   10.000       9.976       9.929       9.815       9.558       9.019       7.994       6.237       3.562      9.8571E-03
   7   10.000       9.976       9.929       9.815       9.558       9.019       7.994       6.237       3.562      9.8571E-03
   8   10.000       9.976       9.929       9.815       9.558       9.019       7.994       6.237       3.562      9.8571E-03
   9   10.000       9.976       9.929       9.815       9.558       9.019       7.994       6.237       3.562      9.8571E-03
  10   10.000       9.976       9.929       9.815       9.558       9.019       7.994       6.237       3.562      9.8571E-03
1
              HEAD IN LAYER   3 AT END OF TIME STEP  53 IN STRESS PERIOD    2
  ---------------------------------------------------------------------------

            1           2           3           4           5           6           7           8           9          10
 ........................................................................................................................
   1   10.000       9.975       9.926       9.809       9.546       8.998       7.963       6.198       3.526      1.0468E-02
   2   10.000       9.975       9.926       9.809       9.546       8.998       7.963       6.198       3.526      1.0468E-02
   3   10.000       9.975       9.926       9.809       9.546       8.998       7.963       6.198       3.526      1.0468E-02
   4   10.000       9.975       9.926       9.809       9.546       8.998       7.963       6.198       3.526      1.0468E-02
   5   10.000       9.975       9.926       9.809       9.546       8.998       7.963       6.198       3.526      1.0468E-02
   6   10.000       9.975       9.926       9.809       9.546       8.998       7.963       6.198       3.526      1.0468E-02
   7   10.000       9.975       9.926       9.809       9.546       8.998       7.963       6.198       3.526      1.0468E-02
   8   10.000       9.975       9.926       9.809       9.546       8.998       7.963       6.198       3.526      1.0468E-02
   9   10.000       9.975       9.926       9.809       9.546       8.998       7.963       6.198       3.526      1.0468E-02
  10   10.000       9.975       9.926       9.809       9.546       8.998       7.963       6.198       3.526      1.0468E-02
1
              HEAD IN LAYER   4 AT END OF TIME STEP  53 IN STRESS PERIOD    2
  ---------------------------------------------------------------------------

            1           2           3           4           5           6           7           8           9          10
 ........................................................................................................................
   1   10.000       9.975       9.924       9.806       9.540       8.988       7.947       6.179       3.508      1.0490E-02
   2   10.000       9.975       9.924       9.806       9.540       8.988       7.947       6.179       3.508      1.0490E-02
   3   10.000       9.975       9.924       9.806       9.540       8.988       7.947       6.179       3.508      1.0490E-02
   4   10.000       9.975       9.924       9.806       9.540       8.988       7.947       6.179       3.508      1.0490E-02
   5   10.000       9.975       9.924       9.806       9.540       8.988       7.947       6.179       3.508      1.0490E-02
   6   10.000       9.975       9.924       9.806       9.540       8.988       7.947       6.179       3.508      1.0490E-02
   7   10.000       9.975       9.924       9.806       9.540       8.988       7.947       6.179       3.508      1.0490E-02
   8   10.000       9.975       9.924       9.806       9.540       8.988       7.947       6.179       3.508      1.0490E-02
   9   10.000       9.975       9.924       9.806       9.540       8.988       7.947       6.179       3.508      1.0490E-02
  10   10.000       9.975       9.924       9.806       9.540       8.988       7.947       6.179       3.508      1.0490E-02

 HEAD WILL BE SAVED ON UNIT   51 AT END OF TIME STEP   53, STRESS PERIOD    2

 DRAWDOWN WILL BE SAVED ON UNIT   52 AT END OF TIME STEP   53, STRESS PERIOD    2
1
  VOLUMETRIC BUDGET FOR ENTIRE MODEL AT END OF TIME STEP   53, STRESS PERIOD   2
  ------------------------------------------------------------------------------

     CUMULATIVE VOLUMES      L**3       RATES FOR THIS TIME STEP      L**3/T
     ------------------                 ------------------------

           IN:                                      IN:
           ---                                      ---
             STORAGE =      247843.0469               STORAGE =        1799.0312
       CONSTANT HEAD =           0.0000         CONSTANT HEAD =           0.0000
               WELLS =           0.0000                 WELLS =           0.0000
     HEAD DEP BOUNDS =         172.3619       HEAD DEP BOUNDS =          14.1324

            TOTAL IN =      248015.4062              TOTAL IN =        1813.1637

          OUT:                                     OUT:
          ----                                     ----
             STORAGE =           0.0000               STORAGE =           0.0000
       CONSTANT HEAD =           0.0000         CONSTANT HEAD =           0.0000
               WELLS =           0.0000                 WELLS =           0.0000
     HEAD DEP BOUNDS =      248016.0781       HEAD DEP BOUNDS =        1813.2239

           TOTAL OUT =      248016.0781             TOTAL OUT =        1813.2239

            IN - OUT =          -0.6719              IN - OUT =      -6.0181E-02

 PERCENT DISCREPANCY =          -0.00     PERCENT DISCREPANCY =          -0.00






         TIME SUMMARY AT END OF TIME STEP   53 IN STRESS PERIOD    2
                    SECONDS     MINUTES      HOURS       DAYS        YEARS
                    -----------------------------------------------------------
   TIME STEP LENGTH  86400.      1440.0      24.000      1.0000     2.73785E-03
 STRESS PERIOD TIME 4.57920E+06  76320.      1272.0      53.000     0.14511    
         TOTAL TIME 4.66560E+06  77760.      1296.0      54.000     0.14784    
1
 
 SOLVING FOR HEAD 

 OUTPUT CONTROL FOR STRESS PERIOD    2   TIME STEP   54
    SAVE HEAD FOR ALL LAYERS
    SAVE DRAWDOWN FOR ALL LAYERS
    SAVE BUDGET
    PRINT HEAD FOR ALL LAYERS
    PRINT BUDGET
 UBDSV1 SAVING "         STORAGE" ON UNIT  53 AT TIME STEP 54, STRESS PERIOD   2
 UBDSV2 SAVING "   CONSTANT HEAD" ON UNIT  53 AT TIME STEP 54, STRESS PERIOD   2
 UBDSV1 SAVING "FLOW RIGHT FACE " ON UNIT  53 AT TIME STEP 54, STRESS PERIOD   2
 UBDSV1 SAVING "FLOW FRONT FACE " ON UNIT  53 AT TIME STEP 54, STRESS PERIOD   2
 UBDSV1 SAVING "FLOW LOWER FACE " ON UNIT  53 AT TIME STEP 54, STRESS PERIOD   2
1
              HEAD IN LAYER   1 AT END OF TIME STEP  54 IN STRESS PERIOD    2
  ---------------------------------------------------------------------------

            1           2           3           4           5           6           7           8           9          10
 ........................................................................................................................
   1   10.000       9.977       9.929       9.816       9.560       9.022       7.999       6.245       3.573      5.3952E-03
   2   10.000       9.977       9.929       9.816       9.560       9.022       7.999       6.245       3.573      5.3952E-03
   3   10.000       9.977       9.929       9.816       9.560       9.022       7.999       6.245       3.573      5.3952E-03
   4   10.000       9.977       9.929       9.816       9.560       9.022       7.999       6.245       3.573      5.3952E-03
   5   10.000       9.977       9.929       9.816       9.560       9.022       7.999       6.245       3.573      5.3952E-03
   6   10.000       9.977       9.929       9.816       9.560       9.022       7.999       6.245       3.573      5.3952E-03
   7   10.000       9.977       9.929       9.816       9.560       9.022       7.999       6.245       3.573      5.3952E-03
   8   10.000       9.977       9.929       9.816       9.560       9.022       7.999       6.245       3.573      5.3952E-03
   9   10.000       9.977       9.929       9.816       9.560       9.022       7.999       6.245       3.573      5.3952E-03
  10   10.000       9.977       9.929       9.816       9.560       9.022       7.999       6.245       3.573      5.3952E-03
1
              HEAD IN LAYER   2 AT END OF TIME STEP  54 IN STRESS PERIOD    2
  ---------------------------------------------------------------------------

            1           2           3           4           5           6           7           8           9          10
 ........................................................................................................................
   1   10.000       9.975       9.925       9.807       9.542       8.992       7.956       6.195       3.531      9.7692E-03
   2   10.000       9.975       9.925       9.807       9.542       8.992       7.956       6.195       3.531      9.7692E-03
   3   10.000       9.975       9.925       9.807       9.542       8.992       7.956       6.195       3.531      9.7692E-03
   4   10.000       9.975       9.925       9.807       9.542       8.992       7.956       6.195       3.531      9.7692E-03
   5   10.000       9.975       9.925       9.807       9.542       8.992       7.956       6.195       3.531      9.7692E-03
   6   10.000       9.975       9.925       9.807       9.542       8.992       7.956       6.195       3.531      9.7692E-03
   7   10.000       9.975       9.925       9.807       9.542       8.992       7.956       6.195       3.531      9.7692E-03
   8   10.000       9.975       9.925       9.807       9.542       8.992       7.956       6.195       3.531      9.7692E-03
   9   10.000       9.975       9.925       9.807       9.542       8.992       7.956       6.195       3.531      9.7692E-03
  10   10.000       9.975       9.925       9.807       9.542       8.992       7.956       6.195       3.531      9.7692E-03
1
              HEAD IN LAYER   3 AT END OF TIME STEP  54 IN STRESS PERIOD    2
  ---------------------------------------------------------------------------

            1           2           3           4           5           6           7           8           9          10
 ........................................................................................................................
   1   10.000       9.974       9.922       9.800       9.529       8.971       7.925       6.156       3.495      1.0377E-02
   2   10.000       9.974       9.922       9.800       9.529       8.971       7.925       6.156       3.495      1.0377E-02
   3   10.000       9.974       9.922       9.800       9.529       8.971       7.925       6.156       3.495      1.0377E-02
   4   10.000       9.974       9.922       9.800       9.529       8.971       7.925       6.156       3.495      1.0377E-02
   5   10.000       9.974       9.922       9.800       9.529       8.971       7.925       6.156       3.495      1.0377E-02
   6   10.000       9.974       9.922       9.800       9.529       8.971       7.925       6.156       3.495      1.0377E-02
   7   10.000       9.974       9.922       9.800       9.529       8.971       7.925       6.156       3.495      1.0377E-02
   8   10.000       9.974       9.922       9.800       9.529       8.971       7.925       6.156       3.495      1.0377E-02
   9   10.000       9.974       9.922       9.800       9.529       8.971       7.925       6.156       3.495      1.0377E-02
  10   10.000       9.974       9.922       9.800       9.529       8.971       7.925       6.156       3.495      1.0377E-02
1
              HEAD IN LAYER   4 AT END OF TIME STEP  54 IN STRESS PERIOD    2
  ---------------------------------------------------------------------------

            1           2           3           4           5           6           7           8           9          10
 ........................................................................................................................
   1   10.000       9.973       9.920       9.797       9.523       8.961       7.910       6.137       3.478      1.0399E-02
   2   10.000       9.973       9.920       9.797       9.523       8.961       7.910       6.137       3.478      1.0399E-02
   3   10.000       9.973       9.920       9.797       9.523       8.961       7.910       6.137       3.478      1.0399E-02
   4   10.000       9.973       9.920       9.797       9.523       8.961       7.910       6.137       3.478      1.0399E-02
   5   10.000       9.973       9.920       9.797       9.523       8.961       7.910       6.137       3.478      1.0399E-02
   6   10.000       9.973       9.920       9.797       9.523       8.961       7.910       6.137       3.478      1.0399E-02
   7   10.000       9.973       9.920       9.797       9.523       8.961       7.910       6.137       3.478      1.0399E-02
   8   10.000       9.973       9.920       9.797       9.523       8.961       7.910       6.137       3.478      1.0399E-02
   9   10.000       9.973       9.920       9.797       9.523       8.961       7.910       6.137       3.478      1.0399E-02
  10   10.000       9.973       9.920       9.797       9.523       8.961       7.910       6.137       3.478      1.0399E-02

 HEAD WILL BE SAVED ON UNIT   51 AT END OF TIME STEP   54, STRESS PERIOD    2

 DRAWDOWN WILL BE SAVED ON UNIT   52 AT END OF TIME STEP   54, STRESS PERIOD    2
1
  VOLUMETRIC BUDGET FOR ENTIRE MODEL AT END OF TIME STEP   54, STRESS PERIOD   2
  ------------------------------------------------------------------------------

     CUMULATIVE VOLUMES      L**3       RATES FOR THIS TIME STEP      L**3/T
     ------------------                 ------------------------

           IN:                                      IN:
           ---                                      ---
             STORAGE =      249624.9844               STORAGE =        1781.9368
       CONSTANT HEAD =           0.0000         CONSTANT HEAD =           0.0000
               WELLS =           0.0000                 WELLS =           0.0000
     HEAD DEP BOUNDS =         187.4445       HEAD DEP BOUNDS =          15.0826

            TOTAL IN =      249812.4219              TOTAL IN =        1797.0194

          OUT:                                     OUT:
          ----                                     ----
             STORAGE =           0.0000               STORAGE =           0.0000
       CONSTANT HEAD =           0.0000         CONSTANT HEAD =           0.0000
               WELLS =           0.0000                 WELLS =           0.0000
     HEAD DEP BOUNDS =      249813.1094       HEAD DEP BOUNDS =        1797.0363

           TOTAL OUT =      249813.1094             TOTAL OUT =        1797.0363

            IN - OUT =          -0.6875              IN - OUT =      -1.6846E-02

 PERCENT DISCREPANCY =          -0.00     PERCENT DISCREPANCY =          -0.00






         TIME SUMMARY AT END OF TIME STEP   54 IN STRESS PERIOD    2
                    SECONDS     MINUTES      HOURS       DAYS        YEARS
                    -----------------------------------------------------------
   TIME STEP LENGTH  86400.      1440.0      24.000      1.0000     2.73785E-03
 STRESS PERIOD TIME 4.66560E+06  77760.      1296.0      54.000     0.14784    
         TOTAL TIME 4.75200E+06  79200.      1320.0      55.000     0.15058    
1
 
 SOLVING FOR HEAD 

 OUTPUT CONTROL FOR STRESS PERIOD    2   TIME STEP   55
    SAVE HEAD FOR ALL LAYERS
    SAVE DRAWDOWN FOR ALL LAYERS
    SAVE BUDGET
    PRINT HEAD FOR ALL LAYERS
    PRINT BUDGET
 UBDSV1 SAVING "         STORAGE" ON UNIT  53 AT TIME STEP 55, STRESS PERIOD   2
 UBDSV2 SAVING "   CONSTANT HEAD" ON UNIT  53 AT TIME STEP 55, STRESS PERIOD   2
 UBDSV1 SAVING "FLOW RIGHT FACE " ON UNIT  53 AT TIME STEP 55, STRESS PERIOD   2
 UBDSV1 SAVING "FLOW FRONT FACE " ON UNIT  53 AT TIME STEP 55, STRESS PERIOD   2
 UBDSV1 SAVING "FLOW LOWER FACE " ON UNIT  53 AT TIME STEP 55, STRESS PERIOD   2
1
              HEAD IN LAYER   1 AT END OF TIME STEP  55 IN STRESS PERIOD    2
  ---------------------------------------------------------------------------

            1           2           3           4           5           6           7           8           9          10
 ........................................................................................................................
   1   10.000       9.975       9.925       9.808       9.543       8.996       7.961       6.202       3.541      5.3422E-03
   2   10.000       9.975       9.925       9.808       9.543       8.996       7.961       6.202       3.541      5.3422E-03
   3   10.000       9.975       9.925       9.808       9.543       8.996       7.961       6.202       3.541      5.3422E-03
   4   10.000       9.975       9.925       9.808       9.543       8.996       7.961       6.202       3.541      5.3422E-03
   5   10.000       9.975       9.925       9.808       9.543       8.996       7.961       6.202       3.541      5.3422E-03
   6   10.000       9.975       9.925       9.808       9.543       8.996       7.961       6.202       3.541      5.3422E-03
   7   10.000       9.975       9.925       9.808       9.543       8.996       7.961       6.202       3.541      5.3422E-03
   8   10.000       9.975       9.925       9.808       9.543       8.996       7.961       6.202       3.541      5.3422E-03
   9   10.000       9.975       9.925       9.808       9.543       8.996       7.961       6.202       3.541      5.3422E-03
  10   10.000       9.975       9.925       9.808       9.543       8.996       7.961       6.202       3.541      5.3422E-03
1
              HEAD IN LAYER   2 AT END OF TIME STEP  55 IN STRESS PERIOD    2
  ---------------------------------------------------------------------------

            1           2           3           4           5           6           7           8           9          10
 ........................................................................................................................
   1   10.000       9.973       9.921       9.798       9.525       8.965       7.918       6.153       3.500      9.6837E-03
   2   10.000       9.973       9.921       9.798       9.525       8.965       7.918       6.153       3.500      9.6837E-03
   3   10.000       9.973       9.921       9.798       9.525       8.965       7.918       6.153       3.500      9.6837E-03
   4   10.000       9.973       9.921       9.798       9.525       8.965       7.918       6.153       3.500      9.6837E-03
   5   10.000       9.973       9.921       9.798       9.525       8.965       7.918       6.153       3.500      9.6837E-03
   6   10.000       9.973       9.921       9.798       9.525       8.965       7.918       6.153       3.500      9.6837E-03
   7   10.000       9.973       9.921       9.798       9.525       8.965       7.918       6.153       3.500      9.6837E-03
   8   10.000       9.973       9.921       9.798       9.525       8.965       7.918       6.153       3.500      9.6837E-03
   9   10.000       9.973       9.921       9.798       9.525       8.965       7.918       6.153       3.500      9.6837E-03
  10   10.000       9.973       9.921       9.798       9.525       8.965       7.918       6.153       3.500      9.6837E-03
1
              HEAD IN LAYER   3 AT END OF TIME STEP  55 IN STRESS PERIOD    2
  ---------------------------------------------------------------------------

            1           2           3           4           5           6           7           8           9          10
 ........................................................................................................................
   1   10.000       9.972       9.918       9.792       9.513       8.945       7.888       6.116       3.465      1.0288E-02
   2   10.000       9.972       9.918       9.792       9.513       8.945       7.888       6.116       3.465      1.0288E-02
   3   10.000       9.972       9.918       9.792       9.513       8.945       7.888       6.116       3.465      1.0288E-02
   4   10.000       9.972       9.918       9.792       9.513       8.945       7.888       6.116       3.465      1.0288E-02
   5   10.000       9.972       9.918       9.792       9.513       8.945       7.888       6.116       3.465      1.0288E-02
   6   10.000       9.972       9.918       9.792       9.513       8.945       7.888       6.116       3.465      1.0288E-02
   7   10.000       9.972       9.918       9.792       9.513       8.945       7.888       6.116       3.465      1.0288E-02
   8   10.000       9.972       9.918       9.792       9.513       8.945       7.888       6.116       3.465      1.0288E-02
   9   10.000       9.972       9.918       9.792       9.513       8.945       7.888       6.116       3.465      1.0288E-02
  10   10.000       9.972       9.918       9.792       9.513       8.945       7.888       6.116       3.465      1.0288E-02
1
              HEAD IN LAYER   4 AT END OF TIME STEP  55 IN STRESS PERIOD    2
  ---------------------------------------------------------------------------

            1           2           3           4           5           6           7           8           9          10
 ........................................................................................................................
   1   10.000       9.972       9.916       9.788       9.507       8.934       7.873       6.097       3.448      1.0311E-02
   2   10.000       9.972       9.916       9.788       9.507       8.934       7.873       6.097       3.448      1.0311E-02
   3   10.000       9.972       9.916       9.788       9.507       8.934       7.873       6.097       3.448      1.0311E-02
   4   10.000       9.972       9.916       9.788       9.507       8.934       7.873       6.097       3.448      1.0311E-02
   5   10.000       9.972       9.916       9.788       9.507       8.934       7.873       6.097       3.448      1.0311E-02
   6   10.000       9.972       9.916       9.788       9.507       8.934       7.873       6.097       3.448      1.0311E-02
   7   10.000       9.972       9.916       9.788       9.507       8.934       7.873       6.097       3.448      1.0311E-02
   8   10.000       9.972       9.916       9.788       9.507       8.934       7.873       6.097       3.448      1.0311E-02
   9   10.000       9.972       9.916       9.788       9.507       8.934       7.873       6.097       3.448      1.0311E-02
  10   10.000       9.972       9.916       9.788       9.507       8.934       7.873       6.097       3.448      1.0311E-02

 HEAD WILL BE SAVED ON UNIT   51 AT END OF TIME STEP   55, STRESS PERIOD    2

 DRAWDOWN WILL BE SAVED ON UNIT   52 AT END OF TIME STEP   55, STRESS PERIOD    2
1
  VOLUMETRIC BUDGET FOR ENTIRE MODEL AT END OF TIME STEP   55, STRESS PERIOD   2
  ------------------------------------------------------------------------------

     CUMULATIVE VOLUMES      L**3       RATES FOR THIS TIME STEP      L**3/T
     ------------------                 ------------------------

           IN:                                      IN:
           ---                                      ---
             STORAGE =      251390.1875               STORAGE =        1765.2025
       CONSTANT HEAD =           0.0000         CONSTANT HEAD =           0.0000
               WELLS =           0.0000                 WELLS =           0.0000
     HEAD DEP BOUNDS =         203.5097       HEAD DEP BOUNDS =          16.0651

            TOTAL IN =      251593.7031              TOTAL IN =        1781.2677

          OUT:                                     OUT:
          ----                                     ----
             STORAGE =           0.0000               STORAGE =           0.0000
       CONSTANT HEAD =           0.0000         CONSTANT HEAD =           0.0000
               WELLS =           0.0000                 WELLS =           0.0000
     HEAD DEP BOUNDS =      251594.3750       HEAD DEP BOUNDS =        1781.2655

           TOTAL OUT =      251594.3750             TOTAL OUT =        1781.2655

            IN - OUT =          -0.6719              IN - OUT =       2.1973E-03

 PERCENT DISCREPANCY =          -0.00     PERCENT DISCREPANCY =           0.00






         TIME SUMMARY AT END OF TIME STEP   55 IN STRESS PERIOD    2
                    SECONDS     MINUTES      HOURS       DAYS        YEARS
                    -----------------------------------------------------------
   TIME STEP LENGTH  86400.      1440.0      24.000      1.0000     2.73785E-03
 STRESS PERIOD TIME 4.75200E+06  79200.      1320.0      55.000     0.15058    
         TOTAL TIME 4.83840E+06  80640.      1344.0      56.000     0.15332    
1
 
 SOLVING FOR HEAD 

 OUTPUT CONTROL FOR STRESS PERIOD    2   TIME STEP   56
    SAVE HEAD FOR ALL LAYERS
    SAVE DRAWDOWN FOR ALL LAYERS
    SAVE BUDGET
    PRINT HEAD FOR ALL LAYERS
    PRINT BUDGET
 UBDSV1 SAVING "         STORAGE" ON UNIT  53 AT TIME STEP 56, STRESS PERIOD   2
 UBDSV2 SAVING "   CONSTANT HEAD" ON UNIT  53 AT TIME STEP 56, STRESS PERIOD   2
 UBDSV1 SAVING "FLOW RIGHT FACE " ON UNIT  53 AT TIME STEP 56, STRESS PERIOD   2
 UBDSV1 SAVING "FLOW FRONT FACE " ON UNIT  53 AT TIME STEP 56, STRESS PERIOD   2
 UBDSV1 SAVING "FLOW LOWER FACE " ON UNIT  53 AT TIME STEP 56, STRESS PERIOD   2
1
              HEAD IN LAYER   1 AT END OF TIME STEP  56 IN STRESS PERIOD    2
  ---------------------------------------------------------------------------

            1           2           3           4           5           6           7           8           9          10
 ........................................................................................................................
   1   10.000       9.974       9.921       9.799       9.527       8.969       7.924       6.161       3.510      5.2909E-03
   2   10.000       9.974       9.921       9.799       9.527       8.969       7.924       6.161       3.510      5.2909E-03
   3   10.000       9.974       9.921       9.799       9.527       8.969       7.924       6.161       3.510      5.2909E-03
   4   10.000       9.974       9.921       9.799       9.527       8.969       7.924       6.161       3.510      5.2909E-03
   5   10.000       9.974       9.921       9.799       9.527       8.969       7.924       6.161       3.510      5.2909E-03
   6   10.000       9.974       9.921       9.799       9.527       8.969       7.924       6.161       3.510      5.2909E-03
   7   10.000       9.974       9.921       9.799       9.527       8.969       7.924       6.161       3.510      5.2909E-03
   8   10.000       9.974       9.921       9.799       9.527       8.969       7.924       6.161       3.510      5.2909E-03
   9   10.000       9.974       9.921       9.799       9.527       8.969       7.924       6.161       3.510      5.2909E-03
  10   10.000       9.974       9.921       9.799       9.527       8.969       7.924       6.161       3.510      5.2909E-03
1
              HEAD IN LAYER   2 AT END OF TIME STEP  56 IN STRESS PERIOD    2
  ---------------------------------------------------------------------------

            1           2           3           4           5           6           7           8           9          10
 ........................................................................................................................
   1   10.000       9.972       9.916       9.789       9.509       8.939       7.882       6.112       3.470      9.6003E-03
   2   10.000       9.972       9.916       9.789       9.509       8.939       7.882       6.112       3.470      9.6003E-03
   3   10.000       9.972       9.916       9.789       9.509       8.939       7.882       6.112       3.470      9.6003E-03
   4   10.000       9.972       9.916       9.789       9.509       8.939       7.882       6.112       3.470      9.6003E-03
   5   10.000       9.972       9.916       9.789       9.509       8.939       7.882       6.112       3.470      9.6003E-03
   6   10.000       9.972       9.916       9.789       9.509       8.939       7.882       6.112       3.470      9.6003E-03
   7   10.000       9.972       9.916       9.789       9.509       8.939       7.882       6.112       3.470      9.6003E-03
   8   10.000       9.972       9.916       9.789       9.509       8.939       7.882       6.112       3.470      9.6003E-03
   9   10.000       9.972       9.916       9.789       9.509       8.939       7.882       6.112       3.470      9.6003E-03
  10   10.000       9.972       9.916       9.789       9.509       8.939       7.882       6.112       3.470      9.6003E-03
1
              HEAD IN LAYER   3 AT END OF TIME STEP  56 IN STRESS PERIOD    2
  ---------------------------------------------------------------------------

            1           2           3           4           5           6           7           8           9          10
 ........................................................................................................................
   1   10.000       9.971       9.913       9.782       9.496       8.918       7.851       6.075       3.436      1.0202E-02
   2   10.000       9.971       9.913       9.782       9.496       8.918       7.851       6.075       3.436      1.0202E-02
   3   10.000       9.971       9.913       9.782       9.496       8.918       7.851       6.075       3.436      1.0202E-02
   4   10.000       9.971       9.913       9.782       9.496       8.918       7.851       6.075       3.436      1.0202E-02
   5   10.000       9.971       9.913       9.782       9.496       8.918       7.851       6.075       3.436      1.0202E-02
   6   10.000       9.971       9.913       9.782       9.496       8.918       7.851       6.075       3.436      1.0202E-02
   7   10.000       9.971       9.913       9.782       9.496       8.918       7.851       6.075       3.436      1.0202E-02
   8   10.000       9.971       9.913       9.782       9.496       8.918       7.851       6.075       3.436      1.0202E-02
   9   10.000       9.971       9.913       9.782       9.496       8.918       7.851       6.075       3.436      1.0202E-02
  10   10.000       9.971       9.913       9.782       9.496       8.918       7.851       6.075       3.436      1.0202E-02
1
              HEAD IN LAYER   4 AT END OF TIME STEP  56 IN STRESS PERIOD    2
  ---------------------------------------------------------------------------

            1           2           3           4           5           6           7           8           9          10
 ........................................................................................................................
   1   10.000       9.970       9.912       9.779       9.490       8.907       7.836       6.057       3.420      1.0225E-02
   2   10.000       9.970       9.912       9.779       9.490       8.907       7.836       6.057       3.420      1.0225E-02
   3   10.000       9.970       9.912       9.779       9.490       8.907       7.836       6.057       3.420      1.0225E-02
   4   10.000       9.970       9.912       9.779       9.490       8.907       7.836       6.057       3.420      1.0225E-02
   5   10.000       9.970       9.912       9.779       9.490       8.907       7.836       6.057       3.420      1.0225E-02
   6   10.000       9.970       9.912       9.779       9.490       8.907       7.836       6.057       3.420      1.0225E-02
   7   10.000       9.970       9.912       9.779       9.490       8.907       7.836       6.057       3.420      1.0225E-02
   8   10.000       9.970       9.912       9.779       9.490       8.907       7.836       6.057       3.420      1.0225E-02
   9   10.000       9.970       9.912       9.779       9.490       8.907       7.836       6.057       3.420      1.0225E-02
  10   10.000       9.970       9.912       9.779       9.490       8.907       7.836       6.057       3.420      1.0225E-02

 HEAD WILL BE SAVED ON UNIT   51 AT END OF TIME STEP   56, STRESS PERIOD    2

 DRAWDOWN WILL BE SAVED ON UNIT   52 AT END OF TIME STEP   56, STRESS PERIOD    2
1
  VOLUMETRIC BUDGET FOR ENTIRE MODEL AT END OF TIME STEP   56, STRESS PERIOD   2
  ------------------------------------------------------------------------------

     CUMULATIVE VOLUMES      L**3       RATES FOR THIS TIME STEP      L**3/T
     ------------------                 ------------------------

           IN:                                      IN:
           ---                                      ---
             STORAGE =      253139.0312               STORAGE =        1748.8510
       CONSTANT HEAD =           0.0000         CONSTANT HEAD =           0.0000
               WELLS =           0.0000                 WELLS =           0.0000
     HEAD DEP BOUNDS =         220.5223       HEAD DEP BOUNDS =          17.0126

            TOTAL IN =      253359.5469              TOTAL IN =        1765.8635

          OUT:                                     OUT:
          ----                                     ----
             STORAGE =           0.0000               STORAGE =           0.0000
       CONSTANT HEAD =           0.0000         CONSTANT HEAD =           0.0000
               WELLS =           0.0000                 WELLS =           0.0000
     HEAD DEP BOUNDS =      253360.2812       HEAD DEP BOUNDS =        1765.9054

           TOTAL OUT =      253360.2812             TOTAL OUT =        1765.9054

            IN - OUT =          -0.7344              IN - OUT =      -4.1870E-02

 PERCENT DISCREPANCY =          -0.00     PERCENT DISCREPANCY =          -0.00






         TIME SUMMARY AT END OF TIME STEP   56 IN STRESS PERIOD    2
                    SECONDS     MINUTES      HOURS       DAYS        YEARS
                    -----------------------------------------------------------
   TIME STEP LENGTH  86400.      1440.0      24.000      1.0000     2.73785E-03
 STRESS PERIOD TIME 4.83840E+06  80640.      1344.0      56.000     0.15332    
         TOTAL TIME 4.92480E+06  82080.      1368.0      57.000     0.15606    
1
 
 SOLVING FOR HEAD 

 OUTPUT CONTROL FOR STRESS PERIOD    2   TIME STEP   57
    SAVE HEAD FOR ALL LAYERS
    SAVE DRAWDOWN FOR ALL LAYERS
    SAVE BUDGET
    PRINT HEAD FOR ALL LAYERS
    PRINT BUDGET
 UBDSV1 SAVING "         STORAGE" ON UNIT  53 AT TIME STEP 57, STRESS PERIOD   2
 UBDSV2 SAVING "   CONSTANT HEAD" ON UNIT  53 AT TIME STEP 57, STRESS PERIOD   2
 UBDSV1 SAVING "FLOW RIGHT FACE " ON UNIT  53 AT TIME STEP 57, STRESS PERIOD   2
 UBDSV1 SAVING "FLOW FRONT FACE " ON UNIT  53 AT TIME STEP 57, STRESS PERIOD   2
 UBDSV1 SAVING "FLOW LOWER FACE " ON UNIT  53 AT TIME STEP 57, STRESS PERIOD   2
1
              HEAD IN LAYER   1 AT END OF TIME STEP  57 IN STRESS PERIOD    2
  ---------------------------------------------------------------------------

            1           2           3           4           5           6           7           8           9          10
 ........................................................................................................................
   1   10.000       9.972       9.917       9.790       9.511       8.942       7.887       6.120       3.480      5.2408E-03
   2   10.000       9.972       9.917       9.790       9.511       8.942       7.887       6.120       3.480      5.2408E-03
   3   10.000       9.972       9.917       9.790       9.511       8.942       7.887       6.120       3.480      5.2408E-03
   4   10.000       9.972       9.917       9.790       9.511       8.942       7.887       6.120       3.480      5.2408E-03
   5   10.000       9.972       9.917       9.790       9.511       8.942       7.887       6.120       3.480      5.2408E-03
   6   10.000       9.972       9.917       9.790       9.511       8.942       7.887       6.120       3.480      5.2408E-03
   7   10.000       9.972       9.917       9.790       9.511       8.942       7.887       6.120       3.480      5.2408E-03
   8   10.000       9.972       9.917       9.790       9.511       8.942       7.887       6.120       3.480      5.2408E-03
   9   10.000       9.972       9.917       9.790       9.511       8.942       7.887       6.120       3.480      5.2408E-03
  10   10.000       9.972       9.917       9.790       9.511       8.942       7.887       6.120       3.480      5.2408E-03
1
              HEAD IN LAYER   2 AT END OF TIME STEP  57 IN STRESS PERIOD    2
  ---------------------------------------------------------------------------

            1           2           3           4           5           6           7           8           9          10
 ........................................................................................................................
   1   10.000       9.970       9.912       9.780       9.492       8.912       7.845       6.072       3.441      9.5190E-03
   2   10.000       9.970       9.912       9.780       9.492       8.912       7.845       6.072       3.441      9.5190E-03
   3   10.000       9.970       9.912       9.780       9.492       8.912       7.845       6.072       3.441      9.5190E-03
   4   10.000       9.970       9.912       9.780       9.492       8.912       7.845       6.072       3.441      9.5190E-03
   5   10.000       9.970       9.912       9.780       9.492       8.912       7.845       6.072       3.441      9.5190E-03
   6   10.000       9.970       9.912       9.780       9.492       8.912       7.845       6.072       3.441      9.5190E-03
   7   10.000       9.970       9.912       9.780       9.492       8.912       7.845       6.072       3.441      9.5190E-03
   8   10.000       9.970       9.912       9.780       9.492       8.912       7.845       6.072       3.441      9.5190E-03
   9   10.000       9.970       9.912       9.780       9.492       8.912       7.845       6.072       3.441      9.5190E-03
  10   10.000       9.970       9.912       9.780       9.492       8.912       7.845       6.072       3.441      9.5190E-03
1
              HEAD IN LAYER   3 AT END OF TIME STEP  57 IN STRESS PERIOD    2
  ---------------------------------------------------------------------------

            1           2           3           4           5           6           7           8           9          10
 ........................................................................................................................
   1   10.000       9.969       9.909       9.773       9.480       8.891       7.815       6.036       3.408      1.0117E-02
   2   10.000       9.969       9.909       9.773       9.480       8.891       7.815       6.036       3.408      1.0117E-02
   3   10.000       9.969       9.909       9.773       9.480       8.891       7.815       6.036       3.408      1.0117E-02
   4   10.000       9.969       9.909       9.773       9.480       8.891       7.815       6.036       3.408      1.0117E-02
   5   10.000       9.969       9.909       9.773       9.480       8.891       7.815       6.036       3.408      1.0117E-02
   6   10.000       9.969       9.909       9.773       9.480       8.891       7.815       6.036       3.408      1.0117E-02
   7   10.000       9.969       9.909       9.773       9.480       8.891       7.815       6.036       3.408      1.0117E-02
   8   10.000       9.969       9.909       9.773       9.480       8.891       7.815       6.036       3.408      1.0117E-02
   9   10.000       9.969       9.909       9.773       9.480       8.891       7.815       6.036       3.408      1.0117E-02
  10   10.000       9.969       9.909       9.773       9.480       8.891       7.815       6.036       3.408      1.0117E-02
1
              HEAD IN LAYER   4 AT END OF TIME STEP  57 IN STRESS PERIOD    2
  ---------------------------------------------------------------------------

            1           2           3           4           5           6           7           8           9          10
 ........................................................................................................................
   1   10.000       9.968       9.907       9.770       9.473       8.881       7.800       6.018       3.392      1.0141E-02
   2   10.000       9.968       9.907       9.770       9.473       8.881       7.800       6.018       3.392      1.0141E-02
   3   10.000       9.968       9.907       9.770       9.473       8.881       7.800       6.018       3.392      1.0141E-02
   4   10.000       9.968       9.907       9.770       9.473       8.881       7.800       6.018       3.392      1.0141E-02
   5   10.000       9.968       9.907       9.770       9.473       8.881       7.800       6.018       3.392      1.0141E-02
   6   10.000       9.968       9.907       9.770       9.473       8.881       7.800       6.018       3.392      1.0141E-02
   7   10.000       9.968       9.907       9.770       9.473       8.881       7.800       6.018       3.392      1.0141E-02
   8   10.000       9.968       9.907       9.770       9.473       8.881       7.800       6.018       3.392      1.0141E-02
   9   10.000       9.968       9.907       9.770       9.473       8.881       7.800       6.018       3.392      1.0141E-02
  10   10.000       9.968       9.907       9.770       9.473       8.881       7.800       6.018       3.392      1.0141E-02

 HEAD WILL BE SAVED ON UNIT   51 AT END OF TIME STEP   57, STRESS PERIOD    2

 DRAWDOWN WILL BE SAVED ON UNIT   52 AT END OF TIME STEP   57, STRESS PERIOD    2
1
  VOLUMETRIC BUDGET FOR ENTIRE MODEL AT END OF TIME STEP   57, STRESS PERIOD   2
  ------------------------------------------------------------------------------

     CUMULATIVE VOLUMES      L**3       RATES FOR THIS TIME STEP      L**3/T
     ------------------                 ------------------------

           IN:                                      IN:
           ---                                      ---
             STORAGE =      254871.8906               STORAGE =        1732.8641
       CONSTANT HEAD =           0.0000         CONSTANT HEAD =           0.0000
               WELLS =           0.0000                 WELLS =           0.0000
     HEAD DEP BOUNDS =         238.5154       HEAD DEP BOUNDS =          17.9932

            TOTAL IN =      255110.4062              TOTAL IN =        1750.8573

          OUT:                                     OUT:
          ----                                     ----
             STORAGE =           0.0000               STORAGE =           0.0000
       CONSTANT HEAD =           0.0000         CONSTANT HEAD =           0.0000
               WELLS =           0.0000                 WELLS =           0.0000
     HEAD DEP BOUNDS =      255111.2031       HEAD DEP BOUNDS =        1750.9142

           TOTAL OUT =      255111.2031             TOTAL OUT =        1750.9142

            IN - OUT =          -0.7969              IN - OUT =      -5.6885E-02

 PERCENT DISCREPANCY =          -0.00     PERCENT DISCREPANCY =          -0.00






         TIME SUMMARY AT END OF TIME STEP   57 IN STRESS PERIOD    2
                    SECONDS     MINUTES      HOURS       DAYS        YEARS
                    -----------------------------------------------------------
   TIME STEP LENGTH  86400.      1440.0      24.000      1.0000     2.73785E-03
 STRESS PERIOD TIME 4.92480E+06  82080.      1368.0      57.000     0.15606    
         TOTAL TIME 5.01120E+06  83520.      1392.0      58.000     0.15880    
1
 
 SOLVING FOR HEAD 

 OUTPUT CONTROL FOR STRESS PERIOD    2   TIME STEP   58
    SAVE HEAD FOR ALL LAYERS
    SAVE DRAWDOWN FOR ALL LAYERS
    SAVE BUDGET
    PRINT HEAD FOR ALL LAYERS
    PRINT BUDGET
 UBDSV1 SAVING "         STORAGE" ON UNIT  53 AT TIME STEP 58, STRESS PERIOD   2
 UBDSV2 SAVING "   CONSTANT HEAD" ON UNIT  53 AT TIME STEP 58, STRESS PERIOD   2
 UBDSV1 SAVING "FLOW RIGHT FACE " ON UNIT  53 AT TIME STEP 58, STRESS PERIOD   2
 UBDSV1 SAVING "FLOW FRONT FACE " ON UNIT  53 AT TIME STEP 58, STRESS PERIOD   2
 UBDSV1 SAVING "FLOW LOWER FACE " ON UNIT  53 AT TIME STEP 58, STRESS PERIOD   2
1
              HEAD IN LAYER   1 AT END OF TIME STEP  58 IN STRESS PERIOD    2
  ---------------------------------------------------------------------------

            1           2           3           4           5           6           7           8           9          10
 ........................................................................................................................
   1   10.000       9.970       9.912       9.781       9.494       8.915       7.850       6.080       3.451      5.1918E-03
   2   10.000       9.970       9.912       9.781       9.494       8.915       7.850       6.080       3.451      5.1918E-03
   3   10.000       9.970       9.912       9.781       9.494       8.915       7.850       6.080       3.451      5.1918E-03
   4   10.000       9.970       9.912       9.781       9.494       8.915       7.850       6.080       3.451      5.1918E-03
   5   10.000       9.970       9.912       9.781       9.494       8.915       7.850       6.080       3.451      5.1918E-03
   6   10.000       9.970       9.912       9.781       9.494       8.915       7.850       6.080       3.451      5.1918E-03
   7   10.000       9.970       9.912       9.781       9.494       8.915       7.850       6.080       3.451      5.1918E-03
   8   10.000       9.970       9.912       9.781       9.494       8.915       7.850       6.080       3.451      5.1918E-03
   9   10.000       9.970       9.912       9.781       9.494       8.915       7.850       6.080       3.451      5.1918E-03
  10   10.000       9.970       9.912       9.781       9.494       8.915       7.850       6.080       3.451      5.1918E-03
1
              HEAD IN LAYER   2 AT END OF TIME STEP  58 IN STRESS PERIOD    2
  ---------------------------------------------------------------------------

            1           2           3           4           5           6           7           8           9          10
 ........................................................................................................................
   1   10.000       9.968       9.907       9.771       9.475       8.885       7.809       6.033       3.413      9.4396E-03
   2   10.000       9.968       9.907       9.771       9.475       8.885       7.809       6.033       3.413      9.4396E-03
   3   10.000       9.968       9.907       9.771       9.475       8.885       7.809       6.033       3.413      9.4396E-03
   4   10.000       9.968       9.907       9.771       9.475       8.885       7.809       6.033       3.413      9.4396E-03
   5   10.000       9.968       9.907       9.771       9.475       8.885       7.809       6.033       3.413      9.4396E-03
   6   10.000       9.968       9.907       9.771       9.475       8.885       7.809       6.033       3.413      9.4396E-03
   7   10.000       9.968       9.907       9.771       9.475       8.885       7.809       6.033       3.413      9.4396E-03
   8   10.000       9.968       9.907       9.771       9.475       8.885       7.809       6.033       3.413      9.4396E-03
   9   10.000       9.968       9.907       9.771       9.475       8.885       7.809       6.033       3.413      9.4396E-03
  10   10.000       9.968       9.907       9.771       9.475       8.885       7.809       6.033       3.413      9.4396E-03
1
              HEAD IN LAYER   3 AT END OF TIME STEP  58 IN STRESS PERIOD    2
  ---------------------------------------------------------------------------

            1           2           3           4           5           6           7           8           9          10
 ........................................................................................................................
   1   10.000       9.967       9.904       9.764       9.463       8.865       7.779       5.997       3.380      1.0035E-02
   2   10.000       9.967       9.904       9.764       9.463       8.865       7.779       5.997       3.380      1.0035E-02
   3   10.000       9.967       9.904       9.764       9.463       8.865       7.779       5.997       3.380      1.0035E-02
   4   10.000       9.967       9.904       9.764       9.463       8.865       7.779       5.997       3.380      1.0035E-02
   5   10.000       9.967       9.904       9.764       9.463       8.865       7.779       5.997       3.380      1.0035E-02
   6   10.000       9.967       9.904       9.764       9.463       8.865       7.779       5.997       3.380      1.0035E-02
   7   10.000       9.967       9.904       9.764       9.463       8.865       7.779       5.997       3.380      1.0035E-02
   8   10.000       9.967       9.904       9.764       9.463       8.865       7.779       5.997       3.380      1.0035E-02
   9   10.000       9.967       9.904       9.764       9.463       8.865       7.779       5.997       3.380      1.0035E-02
  10   10.000       9.967       9.904       9.764       9.463       8.865       7.779       5.997       3.380      1.0035E-02
1
              HEAD IN LAYER   4 AT END OF TIME STEP  58 IN STRESS PERIOD    2
  ---------------------------------------------------------------------------

            1           2           3           4           5           6           7           8           9          10
 ........................................................................................................................
   1   10.000       9.966       9.903       9.761       9.456       8.854       7.764       5.980       3.364      1.0059E-02
   2   10.000       9.966       9.903       9.761       9.456       8.854       7.764       5.980       3.364      1.0059E-02
   3   10.000       9.966       9.903       9.761       9.456       8.854       7.764       5.980       3.364      1.0059E-02
   4   10.000       9.966       9.903       9.761       9.456       8.854       7.764       5.980       3.364      1.0059E-02
   5   10.000       9.966       9.903       9.761       9.456       8.854       7.764       5.980       3.364      1.0059E-02
   6   10.000       9.966       9.903       9.761       9.456       8.854       7.764       5.980       3.364      1.0059E-02
   7   10.000       9.966       9.903       9.761       9.456       8.854       7.764       5.980       3.364      1.0059E-02
   8   10.000       9.966       9.903       9.761       9.456       8.854       7.764       5.980       3.364      1.0059E-02
   9   10.000       9.966       9.903       9.761       9.456       8.854       7.764       5.980       3.364      1.0059E-02
  10   10.000       9.966       9.903       9.761       9.456       8.854       7.764       5.980       3.364      1.0059E-02

 HEAD WILL BE SAVED ON UNIT   51 AT END OF TIME STEP   58, STRESS PERIOD    2

 DRAWDOWN WILL BE SAVED ON UNIT   52 AT END OF TIME STEP   58, STRESS PERIOD    2
1
  VOLUMETRIC BUDGET FOR ENTIRE MODEL AT END OF TIME STEP   58, STRESS PERIOD   2
  ------------------------------------------------------------------------------

     CUMULATIVE VOLUMES      L**3       RATES FOR THIS TIME STEP      L**3/T
     ------------------                 ------------------------

           IN:                                      IN:
           ---                                      ---
             STORAGE =      256589.0938               STORAGE =        1717.2039
       CONSTANT HEAD =           0.0000         CONSTANT HEAD =           0.0000
               WELLS =           0.0000                 WELLS =           0.0000
     HEAD DEP BOUNDS =         257.5894       HEAD DEP BOUNDS =          19.0739

            TOTAL IN =      256846.6875              TOTAL IN =        1736.2778

          OUT:                                     OUT:
          ----                                     ----
             STORAGE =           0.0000               STORAGE =           0.0000
       CONSTANT HEAD =           0.0000         CONSTANT HEAD =           0.0000
               WELLS =           0.0000                 WELLS =           0.0000
     HEAD DEP BOUNDS =      256847.4844       HEAD DEP BOUNDS =        1736.2860

           TOTAL OUT =      256847.4844             TOTAL OUT =        1736.2860

            IN - OUT =          -0.7969              IN - OUT =      -8.1787E-03

 PERCENT DISCREPANCY =          -0.00     PERCENT DISCREPANCY =          -0.00






         TIME SUMMARY AT END OF TIME STEP   58 IN STRESS PERIOD    2
                    SECONDS     MINUTES      HOURS       DAYS        YEARS
                    -----------------------------------------------------------
   TIME STEP LENGTH  86400.      1440.0      24.000      1.0000     2.73785E-03
 STRESS PERIOD TIME 5.01120E+06  83520.      1392.0      58.000     0.15880    
         TOTAL TIME 5.09760E+06  84960.      1416.0      59.000     0.16153    
1
 
 SOLVING FOR HEAD 

 OUTPUT CONTROL FOR STRESS PERIOD    2   TIME STEP   59
    SAVE HEAD FOR ALL LAYERS
    SAVE DRAWDOWN FOR ALL LAYERS
    SAVE BUDGET
    PRINT HEAD FOR ALL LAYERS
    PRINT BUDGET
 UBDSV1 SAVING "         STORAGE" ON UNIT  53 AT TIME STEP 59, STRESS PERIOD   2
 UBDSV2 SAVING "   CONSTANT HEAD" ON UNIT  53 AT TIME STEP 59, STRESS PERIOD   2
 UBDSV1 SAVING "FLOW RIGHT FACE " ON UNIT  53 AT TIME STEP 59, STRESS PERIOD   2
 UBDSV1 SAVING "FLOW FRONT FACE " ON UNIT  53 AT TIME STEP 59, STRESS PERIOD   2
 UBDSV1 SAVING "FLOW LOWER FACE " ON UNIT  53 AT TIME STEP 59, STRESS PERIOD   2
1
              HEAD IN LAYER   1 AT END OF TIME STEP  59 IN STRESS PERIOD    2
  ---------------------------------------------------------------------------

            1           2           3           4           5           6           7           8           9          10
 ........................................................................................................................
   1   10.000       9.968       9.908       9.772       9.477       8.889       7.814       6.041       3.422      5.1443E-03
   2   10.000       9.968       9.908       9.772       9.477       8.889       7.814       6.041       3.422      5.1443E-03
   3   10.000       9.968       9.908       9.772       9.477       8.889       7.814       6.041       3.422      5.1443E-03
   4   10.000       9.968       9.908       9.772       9.477       8.889       7.814       6.041       3.422      5.1443E-03
   5   10.000       9.968       9.908       9.772       9.477       8.889       7.814       6.041       3.422      5.1443E-03
   6   10.000       9.968       9.908       9.772       9.477       8.889       7.814       6.041       3.422      5.1443E-03
   7   10.000       9.968       9.908       9.772       9.477       8.889       7.814       6.041       3.422      5.1443E-03
   8   10.000       9.968       9.908       9.772       9.477       8.889       7.814       6.041       3.422      5.1443E-03
   9   10.000       9.968       9.908       9.772       9.477       8.889       7.814       6.041       3.422      5.1443E-03
  10   10.000       9.968       9.908       9.772       9.477       8.889       7.814       6.041       3.422      5.1443E-03
1
              HEAD IN LAYER   2 AT END OF TIME STEP  59 IN STRESS PERIOD    2
  ---------------------------------------------------------------------------

            1           2           3           4           5           6           7           8           9          10
 ........................................................................................................................
   1   10.000       9.967       9.903       9.761       9.459       8.859       7.773       5.995       3.385      9.3622E-03
   2   10.000       9.967       9.903       9.761       9.459       8.859       7.773       5.995       3.385      9.3622E-03
   3   10.000       9.967       9.903       9.761       9.459       8.859       7.773       5.995       3.385      9.3622E-03
   4   10.000       9.967       9.903       9.761       9.459       8.859       7.773       5.995       3.385      9.3622E-03
   5   10.000       9.967       9.903       9.761       9.459       8.859       7.773       5.995       3.385      9.3622E-03
   6   10.000       9.967       9.903       9.761       9.459       8.859       7.773       5.995       3.385      9.3622E-03
   7   10.000       9.967       9.903       9.761       9.459       8.859       7.773       5.995       3.385      9.3622E-03
   8   10.000       9.967       9.903       9.761       9.459       8.859       7.773       5.995       3.385      9.3622E-03
   9   10.000       9.967       9.903       9.761       9.459       8.859       7.773       5.995       3.385      9.3622E-03
  10   10.000       9.967       9.903       9.761       9.459       8.859       7.773       5.995       3.385      9.3622E-03
1
              HEAD IN LAYER   3 AT END OF TIME STEP  59 IN STRESS PERIOD    2
  ---------------------------------------------------------------------------

            1           2           3           4           5           6           7           8           9          10
 ........................................................................................................................
   1   10.000       9.965       9.900       9.754       9.446       8.838       7.744       5.959       3.353      9.9543E-03
   2   10.000       9.965       9.900       9.754       9.446       8.838       7.744       5.959       3.353      9.9543E-03
   3   10.000       9.965       9.900       9.754       9.446       8.838       7.744       5.959       3.353      9.9543E-03
   4   10.000       9.965       9.900       9.754       9.446       8.838       7.744       5.959       3.353      9.9543E-03
   5   10.000       9.965       9.900       9.754       9.446       8.838       7.744       5.959       3.353      9.9543E-03
   6   10.000       9.965       9.900       9.754       9.446       8.838       7.744       5.959       3.353      9.9543E-03
   7   10.000       9.965       9.900       9.754       9.446       8.838       7.744       5.959       3.353      9.9543E-03
   8   10.000       9.965       9.900       9.754       9.446       8.838       7.744       5.959       3.353      9.9543E-03
   9   10.000       9.965       9.900       9.754       9.446       8.838       7.744       5.959       3.353      9.9543E-03
  10   10.000       9.965       9.900       9.754       9.446       8.838       7.744       5.959       3.353      9.9543E-03
1
              HEAD IN LAYER   4 AT END OF TIME STEP  59 IN STRESS PERIOD    2
  ---------------------------------------------------------------------------

            1           2           3           4           5           6           7           8           9          10
 ........................................................................................................................
   1   10.000       9.965       9.898       9.751       9.439       8.828       7.729       5.942       3.338      9.9795E-03
   2   10.000       9.965       9.898       9.751       9.439       8.828       7.729       5.942       3.338      9.9795E-03
   3   10.000       9.965       9.898       9.751       9.439       8.828       7.729       5.942       3.338      9.9795E-03
   4   10.000       9.965       9.898       9.751       9.439       8.828       7.729       5.942       3.338      9.9795E-03
   5   10.000       9.965       9.898       9.751       9.439       8.828       7.729       5.942       3.338      9.9795E-03
   6   10.000       9.965       9.898       9.751       9.439       8.828       7.729       5.942       3.338      9.9795E-03
   7   10.000       9.965       9.898       9.751       9.439       8.828       7.729       5.942       3.338      9.9795E-03
   8   10.000       9.965       9.898       9.751       9.439       8.828       7.729       5.942       3.338      9.9795E-03
   9   10.000       9.965       9.898       9.751       9.439       8.828       7.729       5.942       3.338      9.9795E-03
  10   10.000       9.965       9.898       9.751       9.439       8.828       7.729       5.942       3.338      9.9795E-03

 HEAD WILL BE SAVED ON UNIT   51 AT END OF TIME STEP   59, STRESS PERIOD    2

 DRAWDOWN WILL BE SAVED ON UNIT   52 AT END OF TIME STEP   59, STRESS PERIOD    2
1
  VOLUMETRIC BUDGET FOR ENTIRE MODEL AT END OF TIME STEP   59, STRESS PERIOD   2
  ------------------------------------------------------------------------------

     CUMULATIVE VOLUMES      L**3       RATES FOR THIS TIME STEP      L**3/T
     ------------------                 ------------------------

           IN:                                      IN:
           ---                                      ---
             STORAGE =      258290.9219               STORAGE =        1701.8300
       CONSTANT HEAD =           0.0000         CONSTANT HEAD =           0.0000
               WELLS =           0.0000                 WELLS =           0.0000
     HEAD DEP BOUNDS =         277.7761       HEAD DEP BOUNDS =          20.1867

            TOTAL IN =      258568.7031              TOTAL IN =        1722.0166

          OUT:                                     OUT:
          ----                                     ----
             STORAGE =           0.0000               STORAGE =           0.0000
       CONSTANT HEAD =           0.0000         CONSTANT HEAD =           0.0000
               WELLS =           0.0000                 WELLS =           0.0000
     HEAD DEP BOUNDS =      258569.5000       HEAD DEP BOUNDS =        1722.0167

           TOTAL OUT =      258569.5000             TOTAL OUT =        1722.0167

            IN - OUT =          -0.7969              IN - OUT =      -1.2207E-04

 PERCENT DISCREPANCY =          -0.00     PERCENT DISCREPANCY =          -0.00






         TIME SUMMARY AT END OF TIME STEP   59 IN STRESS PERIOD    2
                    SECONDS     MINUTES      HOURS       DAYS        YEARS
                    -----------------------------------------------------------
   TIME STEP LENGTH  86400.      1440.0      24.000      1.0000     2.73785E-03
 STRESS PERIOD TIME 5.09760E+06  84960.      1416.0      59.000     0.16153    
         TOTAL TIME 5.18400E+06  86400.      1440.0      60.000     0.16427    
1
 
 SOLVING FOR HEAD 

 OUTPUT CONTROL FOR STRESS PERIOD    2   TIME STEP   60
    SAVE HEAD FOR ALL LAYERS
    SAVE DRAWDOWN FOR ALL LAYERS
    SAVE BUDGET
    PRINT HEAD FOR ALL LAYERS
    PRINT BUDGET
 UBDSV1 SAVING "         STORAGE" ON UNIT  53 AT TIME STEP 60, STRESS PERIOD   2
 UBDSV2 SAVING "   CONSTANT HEAD" ON UNIT  53 AT TIME STEP 60, STRESS PERIOD   2
 UBDSV1 SAVING "FLOW RIGHT FACE " ON UNIT  53 AT TIME STEP 60, STRESS PERIOD   2
 UBDSV1 SAVING "FLOW FRONT FACE " ON UNIT  53 AT TIME STEP 60, STRESS PERIOD   2
 UBDSV1 SAVING "FLOW LOWER FACE " ON UNIT  53 AT TIME STEP 60, STRESS PERIOD   2
1
              HEAD IN LAYER   1 AT END OF TIME STEP  60 IN STRESS PERIOD    2
  ---------------------------------------------------------------------------

            1           2           3           4           5           6           7           8           9          10
 ........................................................................................................................
   1   10.000       9.967       9.903       9.762       9.460       8.862       7.778       6.002       3.395      5.0980E-03
   2   10.000       9.967       9.903       9.762       9.460       8.862       7.778       6.002       3.395      5.0980E-03
   3   10.000       9.967       9.903       9.762       9.460       8.862       7.778       6.002       3.395      5.0980E-03
   4   10.000       9.967       9.903       9.762       9.460       8.862       7.778       6.002       3.395      5.0980E-03
   5   10.000       9.967       9.903       9.762       9.460       8.862       7.778       6.002       3.395      5.0980E-03
   6   10.000       9.967       9.903       9.762       9.460       8.862       7.778       6.002       3.395      5.0980E-03
   7   10.000       9.967       9.903       9.762       9.460       8.862       7.778       6.002       3.395      5.0980E-03
   8   10.000       9.967       9.903       9.762       9.460       8.862       7.778       6.002       3.395      5.0980E-03
   9   10.000       9.967       9.903       9.762       9.460       8.862       7.778       6.002       3.395      5.0980E-03
  10   10.000       9.967       9.903       9.762       9.460       8.862       7.778       6.002       3.395      5.0980E-03
1
              HEAD IN LAYER   2 AT END OF TIME STEP  60 IN STRESS PERIOD    2
  ---------------------------------------------------------------------------

            1           2           3           4           5           6           7           8           9          10
 ........................................................................................................................
   1   10.000       9.965       9.898       9.752       9.442       8.832       7.738       5.957       3.358      9.2866E-03
   2   10.000       9.965       9.898       9.752       9.442       8.832       7.738       5.957       3.358      9.2866E-03
   3   10.000       9.965       9.898       9.752       9.442       8.832       7.738       5.957       3.358      9.2866E-03
   4   10.000       9.965       9.898       9.752       9.442       8.832       7.738       5.957       3.358      9.2866E-03
   5   10.000       9.965       9.898       9.752       9.442       8.832       7.738       5.957       3.358      9.2866E-03
   6   10.000       9.965       9.898       9.752       9.442       8.832       7.738       5.957       3.358      9.2866E-03
   7   10.000       9.965       9.898       9.752       9.442       8.832       7.738       5.957       3.358      9.2866E-03
   8   10.000       9.965       9.898       9.752       9.442       8.832       7.738       5.957       3.358      9.2866E-03
   9   10.000       9.965       9.898       9.752       9.442       8.832       7.738       5.957       3.358      9.2866E-03
  10   10.000       9.965       9.898       9.752       9.442       8.832       7.738       5.957       3.358      9.2866E-03
1
              HEAD IN LAYER   3 AT END OF TIME STEP  60 IN STRESS PERIOD    2
  ---------------------------------------------------------------------------

            1           2           3           4           5           6           7           8           9          10
 ........................................................................................................................
   1   10.000       9.963       9.895       9.745       9.429       8.811       7.709       5.922       3.327      9.8758E-03
   2   10.000       9.963       9.895       9.745       9.429       8.811       7.709       5.922       3.327      9.8758E-03
   3   10.000       9.963       9.895       9.745       9.429       8.811       7.709       5.922       3.327      9.8758E-03
   4   10.000       9.963       9.895       9.745       9.429       8.811       7.709       5.922       3.327      9.8758E-03
   5   10.000       9.963       9.895       9.745       9.429       8.811       7.709       5.922       3.327      9.8758E-03
   6   10.000       9.963       9.895       9.745       9.429       8.811       7.709       5.922       3.327      9.8758E-03
   7   10.000       9.963       9.895       9.745       9.429       8.811       7.709       5.922       3.327      9.8758E-03
   8   10.000       9.963       9.895       9.745       9.429       8.811       7.709       5.922       3.327      9.8758E-03
   9   10.000       9.963       9.895       9.745       9.429       8.811       7.709       5.922       3.327      9.8758E-03
  10   10.000       9.963       9.895       9.745       9.429       8.811       7.709       5.922       3.327      9.8758E-03
1
              HEAD IN LAYER   4 AT END OF TIME STEP  60 IN STRESS PERIOD    2
  ---------------------------------------------------------------------------

            1           2           3           4           5           6           7           8           9          10
 ........................................................................................................................
   1   10.000       9.963       9.893       9.741       9.422       8.801       7.694       5.905       3.311      9.9014E-03
   2   10.000       9.963       9.893       9.741       9.422       8.801       7.694       5.905       3.311      9.9014E-03
   3   10.000       9.963       9.893       9.741       9.422       8.801       7.694       5.905       3.311      9.9014E-03
   4   10.000       9.963       9.893       9.741       9.422       8.801       7.694       5.905       3.311      9.9014E-03
   5   10.000       9.963       9.893       9.741       9.422       8.801       7.694       5.905       3.311      9.9014E-03
   6   10.000       9.963       9.893       9.741       9.422       8.801       7.694       5.905       3.311      9.9014E-03
   7   10.000       9.963       9.893       9.741       9.422       8.801       7.694       5.905       3.311      9.9014E-03
   8   10.000       9.963       9.893       9.741       9.422       8.801       7.694       5.905       3.311      9.9014E-03
   9   10.000       9.963       9.893       9.741       9.422       8.801       7.694       5.905       3.311      9.9014E-03
  10   10.000       9.963       9.893       9.741       9.422       8.801       7.694       5.905       3.311      9.9014E-03

 HEAD WILL BE SAVED ON UNIT   51 AT END OF TIME STEP   60, STRESS PERIOD    2

 DRAWDOWN WILL BE SAVED ON UNIT   52 AT END OF TIME STEP   60, STRESS PERIOD    2
1
  VOLUMETRIC BUDGET FOR ENTIRE MODEL AT END OF TIME STEP   60, STRESS PERIOD   2
  ------------------------------------------------------------------------------

     CUMULATIVE VOLUMES      L**3       RATES FOR THIS TIME STEP      L**3/T
     ------------------                 ------------------------

           IN:                                      IN:
           ---                                      ---
             STORAGE =      259977.6875               STORAGE =        1686.7595
       CONSTANT HEAD =           0.0000         CONSTANT HEAD =           0.0000
               WELLS =           0.0000                 WELLS =           0.0000
     HEAD DEP BOUNDS =         299.0403       HEAD DEP BOUNDS =          21.2642

            TOTAL IN =      260276.7344              TOTAL IN =        1708.0238

          OUT:                                     OUT:
          ----                                     ----
             STORAGE =           0.0000               STORAGE =           0.0000
       CONSTANT HEAD =           0.0000         CONSTANT HEAD =           0.0000
               WELLS =           0.0000                 WELLS =           0.0000
     HEAD DEP BOUNDS =      260277.5938       HEAD DEP BOUNDS =        1708.0909

           TOTAL OUT =      260277.5938             TOTAL OUT =        1708.0909

            IN - OUT =          -0.8594              IN - OUT =      -6.7139E-02

 PERCENT DISCREPANCY =          -0.00     PERCENT DISCREPANCY =          -0.00






         TIME SUMMARY AT END OF TIME STEP   60 IN STRESS PERIOD    2
                    SECONDS     MINUTES      HOURS       DAYS        YEARS
                    -----------------------------------------------------------
   TIME STEP LENGTH  86400.      1440.0      24.000      1.0000     2.73785E-03
 STRESS PERIOD TIME 5.18400E+06  86400.      1440.0      60.000     0.16427    
         TOTAL TIME 5.27040E+06  87840.      1464.0      61.000     0.16701    
1
 
 SOLVING FOR HEAD 

 OUTPUT CONTROL FOR STRESS PERIOD    2   TIME STEP   61
    SAVE HEAD FOR ALL LAYERS
    SAVE DRAWDOWN FOR ALL LAYERS
    SAVE BUDGET
    PRINT HEAD FOR ALL LAYERS
    PRINT BUDGET
 UBDSV1 SAVING "         STORAGE" ON UNIT  53 AT TIME STEP 61, STRESS PERIOD   2
 UBDSV2 SAVING "   CONSTANT HEAD" ON UNIT  53 AT TIME STEP 61, STRESS PERIOD   2
 UBDSV1 SAVING "FLOW RIGHT FACE " ON UNIT  53 AT TIME STEP 61, STRESS PERIOD   2
 UBDSV1 SAVING "FLOW FRONT FACE " ON UNIT  53 AT TIME STEP 61, STRESS PERIOD   2
 UBDSV1 SAVING "FLOW LOWER FACE " ON UNIT  53 AT TIME STEP 61, STRESS PERIOD   2
1
              HEAD IN LAYER   1 AT END OF TIME STEP  61 IN STRESS PERIOD    2
  ---------------------------------------------------------------------------

            1           2           3           4           5           6           7           8           9          10
 ........................................................................................................................
   1   10.000       9.965       9.899       9.753       9.443       8.835       7.743       5.964       3.367      5.0529E-03
   2   10.000       9.965       9.899       9.753       9.443       8.835       7.743       5.964       3.367      5.0529E-03
   3   10.000       9.965       9.899       9.753       9.443       8.835       7.743       5.964       3.367      5.0529E-03
   4   10.000       9.965       9.899       9.753       9.443       8.835       7.743       5.964       3.367      5.0529E-03
   5   10.000       9.965       9.899       9.753       9.443       8.835       7.743       5.964       3.367      5.0529E-03
   6   10.000       9.965       9.899       9.753       9.443       8.835       7.743       5.964       3.367      5.0529E-03
   7   10.000       9.965       9.899       9.753       9.443       8.835       7.743       5.964       3.367      5.0529E-03
   8   10.000       9.965       9.899       9.753       9.443       8.835       7.743       5.964       3.367      5.0529E-03
   9   10.000       9.965       9.899       9.753       9.443       8.835       7.743       5.964       3.367      5.0529E-03
  10   10.000       9.965       9.899       9.753       9.443       8.835       7.743       5.964       3.367      5.0529E-03
1
              HEAD IN LAYER   2 AT END OF TIME STEP  61 IN STRESS PERIOD    2
  ---------------------------------------------------------------------------

            1           2           3           4           5           6           7           8           9          10
 ........................................................................................................................
   1   10.000       9.963       9.893       9.742       9.425       8.806       7.703       5.920       3.331      9.2128E-03
   2   10.000       9.963       9.893       9.742       9.425       8.806       7.703       5.920       3.331      9.2128E-03
   3   10.000       9.963       9.893       9.742       9.425       8.806       7.703       5.920       3.331      9.2128E-03
   4   10.000       9.963       9.893       9.742       9.425       8.806       7.703       5.920       3.331      9.2128E-03
   5   10.000       9.963       9.893       9.742       9.425       8.806       7.703       5.920       3.331      9.2128E-03
   6   10.000       9.963       9.893       9.742       9.425       8.806       7.703       5.920       3.331      9.2128E-03
   7   10.000       9.963       9.893       9.742       9.425       8.806       7.703       5.920       3.331      9.2128E-03
   8   10.000       9.963       9.893       9.742       9.425       8.806       7.703       5.920       3.331      9.2128E-03
   9   10.000       9.963       9.893       9.742       9.425       8.806       7.703       5.920       3.331      9.2128E-03
  10   10.000       9.963       9.893       9.742       9.425       8.806       7.703       5.920       3.331      9.2128E-03
1
              HEAD IN LAYER   3 AT END OF TIME STEP  61 IN STRESS PERIOD    2
  ---------------------------------------------------------------------------

            1           2           3           4           5           6           7           8           9          10
 ........................................................................................................................
   1   10.000       9.961       9.890       9.735       9.412       8.785       7.674       5.886       3.301      9.7990E-03
   2   10.000       9.961       9.890       9.735       9.412       8.785       7.674       5.886       3.301      9.7990E-03
   3   10.000       9.961       9.890       9.735       9.412       8.785       7.674       5.886       3.301      9.7990E-03
   4   10.000       9.961       9.890       9.735       9.412       8.785       7.674       5.886       3.301      9.7990E-03
   5   10.000       9.961       9.890       9.735       9.412       8.785       7.674       5.886       3.301      9.7990E-03
   6   10.000       9.961       9.890       9.735       9.412       8.785       7.674       5.886       3.301      9.7990E-03
   7   10.000       9.961       9.890       9.735       9.412       8.785       7.674       5.886       3.301      9.7990E-03
   8   10.000       9.961       9.890       9.735       9.412       8.785       7.674       5.886       3.301      9.7990E-03
   9   10.000       9.961       9.890       9.735       9.412       8.785       7.674       5.886       3.301      9.7990E-03
  10   10.000       9.961       9.890       9.735       9.412       8.785       7.674       5.886       3.301      9.7990E-03
1
              HEAD IN LAYER   4 AT END OF TIME STEP  61 IN STRESS PERIOD    2
  ---------------------------------------------------------------------------

            1           2           3           4           5           6           7           8           9          10
 ........................................................................................................................
   1   10.000       9.961       9.888       9.731       9.405       8.775       7.659       5.869       3.286      9.8251E-03
   2   10.000       9.961       9.888       9.731       9.405       8.775       7.659       5.869       3.286      9.8251E-03
   3   10.000       9.961       9.888       9.731       9.405       8.775       7.659       5.869       3.286      9.8251E-03
   4   10.000       9.961       9.888       9.731       9.405       8.775       7.659       5.869       3.286      9.8251E-03
   5   10.000       9.961       9.888       9.731       9.405       8.775       7.659       5.869       3.286      9.8251E-03
   6   10.000       9.961       9.888       9.731       9.405       8.775       7.659       5.869       3.286      9.8251E-03
   7   10.000       9.961       9.888       9.731       9.405       8.775       7.659       5.869       3.286      9.8251E-03
   8   10.000       9.961       9.888       9.731       9.405       8.775       7.659       5.869       3.286      9.8251E-03
   9   10.000       9.961       9.888       9.731       9.405       8.775       7.659       5.869       3.286      9.8251E-03
  10   10.000       9.961       9.888       9.731       9.405       8.775       7.659       5.869       3.286      9.8251E-03

 HEAD WILL BE SAVED ON UNIT   51 AT END OF TIME STEP   61, STRESS PERIOD    2

 DRAWDOWN WILL BE SAVED ON UNIT   52 AT END OF TIME STEP   61, STRESS PERIOD    2
1
  VOLUMETRIC BUDGET FOR ENTIRE MODEL AT END OF TIME STEP   61, STRESS PERIOD   2
  ------------------------------------------------------------------------------

     CUMULATIVE VOLUMES      L**3       RATES FOR THIS TIME STEP      L**3/T
     ------------------                 ------------------------

           IN:                                      IN:
           ---                                      ---
             STORAGE =      261649.7188               STORAGE =        1672.0337
       CONSTANT HEAD =           0.0000         CONSTANT HEAD =           0.0000
               WELLS =           0.0000                 WELLS =           0.0000
     HEAD DEP BOUNDS =         321.4814       HEAD DEP BOUNDS =          22.4411

            TOTAL IN =      261971.2031              TOTAL IN =        1694.4749

          OUT:                                     OUT:
          ----                                     ----
             STORAGE =           0.0000               STORAGE =           0.0000
       CONSTANT HEAD =           0.0000         CONSTANT HEAD =           0.0000
               WELLS =           0.0000                 WELLS =           0.0000
     HEAD DEP BOUNDS =      261972.0781       HEAD DEP BOUNDS =        1694.4899

           TOTAL OUT =      261972.0781             TOTAL OUT =        1694.4899

            IN - OUT =          -0.8750              IN - OUT =      -1.5015E-02

 PERCENT DISCREPANCY =          -0.00     PERCENT DISCREPANCY =          -0.00






         TIME SUMMARY AT END OF TIME STEP   61 IN STRESS PERIOD    2
                    SECONDS     MINUTES      HOURS       DAYS        YEARS
                    -----------------------------------------------------------
   TIME STEP LENGTH  86400.      1440.0      24.000      1.0000     2.73785E-03
 STRESS PERIOD TIME 5.27040E+06  87840.      1464.0      61.000     0.16701    
         TOTAL TIME 5.35680E+06  89280.      1488.0      62.000     0.16975    
1
 
 SOLVING FOR HEAD 

 OUTPUT CONTROL FOR STRESS PERIOD    2   TIME STEP   62
    SAVE HEAD FOR ALL LAYERS
    SAVE DRAWDOWN FOR ALL LAYERS
    SAVE BUDGET
    PRINT HEAD FOR ALL LAYERS
    PRINT BUDGET
 UBDSV1 SAVING "         STORAGE" ON UNIT  53 AT TIME STEP 62, STRESS PERIOD   2
 UBDSV2 SAVING "   CONSTANT HEAD" ON UNIT  53 AT TIME STEP 62, STRESS PERIOD   2
 UBDSV1 SAVING "FLOW RIGHT FACE " ON UNIT  53 AT TIME STEP 62, STRESS PERIOD   2
 UBDSV1 SAVING "FLOW FRONT FACE " ON UNIT  53 AT TIME STEP 62, STRESS PERIOD   2
 UBDSV1 SAVING "FLOW LOWER FACE " ON UNIT  53 AT TIME STEP 62, STRESS PERIOD   2
1
              HEAD IN LAYER   1 AT END OF TIME STEP  62 IN STRESS PERIOD    2
  ---------------------------------------------------------------------------

            1           2           3           4           5           6           7           8           9          10
 ........................................................................................................................
   1   10.000       9.963       9.894       9.743       9.426       8.809       7.708       5.927       3.341      5.0087E-03
   2   10.000       9.963       9.894       9.743       9.426       8.809       7.708       5.927       3.341      5.0087E-03
   3   10.000       9.963       9.894       9.743       9.426       8.809       7.708       5.927       3.341      5.0087E-03
   4   10.000       9.963       9.894       9.743       9.426       8.809       7.708       5.927       3.341      5.0087E-03
   5   10.000       9.963       9.894       9.743       9.426       8.809       7.708       5.927       3.341      5.0087E-03
   6   10.000       9.963       9.894       9.743       9.426       8.809       7.708       5.927       3.341      5.0087E-03
   7   10.000       9.963       9.894       9.743       9.426       8.809       7.708       5.927       3.341      5.0087E-03
   8   10.000       9.963       9.894       9.743       9.426       8.809       7.708       5.927       3.341      5.0087E-03
   9   10.000       9.963       9.894       9.743       9.426       8.809       7.708       5.927       3.341      5.0087E-03
  10   10.000       9.963       9.894       9.743       9.426       8.809       7.708       5.927       3.341      5.0087E-03
1
              HEAD IN LAYER   2 AT END OF TIME STEP  62 IN STRESS PERIOD    2
  ---------------------------------------------------------------------------

            1           2           3           4           5           6           7           8           9          10
 ........................................................................................................................
   1   10.000       9.961       9.888       9.732       9.407       8.779       7.668       5.883       3.305      9.1407E-03
   2   10.000       9.961       9.888       9.732       9.407       8.779       7.668       5.883       3.305      9.1407E-03
   3   10.000       9.961       9.888       9.732       9.407       8.779       7.668       5.883       3.305      9.1407E-03
   4   10.000       9.961       9.888       9.732       9.407       8.779       7.668       5.883       3.305      9.1407E-03
   5   10.000       9.961       9.888       9.732       9.407       8.779       7.668       5.883       3.305      9.1407E-03
   6   10.000       9.961       9.888       9.732       9.407       8.779       7.668       5.883       3.305      9.1407E-03
   7   10.000       9.961       9.888       9.732       9.407       8.779       7.668       5.883       3.305      9.1407E-03
   8   10.000       9.961       9.888       9.732       9.407       8.779       7.668       5.883       3.305      9.1407E-03
   9   10.000       9.961       9.888       9.732       9.407       8.779       7.668       5.883       3.305      9.1407E-03
  10   10.000       9.961       9.888       9.732       9.407       8.779       7.668       5.883       3.305      9.1407E-03
1
              HEAD IN LAYER   3 AT END OF TIME STEP  62 IN STRESS PERIOD    2
  ---------------------------------------------------------------------------

            1           2           3           4           5           6           7           8           9          10
 ........................................................................................................................
   1   10.000       9.959       9.885       9.725       9.394       8.759       7.640       5.850       3.276      9.7240E-03
   2   10.000       9.959       9.885       9.725       9.394       8.759       7.640       5.850       3.276      9.7240E-03
   3   10.000       9.959       9.885       9.725       9.394       8.759       7.640       5.850       3.276      9.7240E-03
   4   10.000       9.959       9.885       9.725       9.394       8.759       7.640       5.850       3.276      9.7240E-03
   5   10.000       9.959       9.885       9.725       9.394       8.759       7.640       5.850       3.276      9.7240E-03
   6   10.000       9.959       9.885       9.725       9.394       8.759       7.640       5.850       3.276      9.7240E-03
   7   10.000       9.959       9.885       9.725       9.394       8.759       7.640       5.850       3.276      9.7240E-03
   8   10.000       9.959       9.885       9.725       9.394       8.759       7.640       5.850       3.276      9.7240E-03
   9   10.000       9.959       9.885       9.725       9.394       8.759       7.640       5.850       3.276      9.7240E-03
  10   10.000       9.959       9.885       9.725       9.394       8.759       7.640       5.850       3.276      9.7240E-03
1
              HEAD IN LAYER   4 AT END OF TIME STEP  62 IN STRESS PERIOD    2
  ---------------------------------------------------------------------------

            1           2           3           4           5           6           7           8           9          10
 ........................................................................................................................
   1   10.000       9.959       9.883       9.722       9.388       8.748       7.625       5.833       3.261      9.7505E-03
   2   10.000       9.959       9.883       9.722       9.388       8.748       7.625       5.833       3.261      9.7505E-03
   3   10.000       9.959       9.883       9.722       9.388       8.748       7.625       5.833       3.261      9.7505E-03
   4   10.000       9.959       9.883       9.722       9.388       8.748       7.625       5.833       3.261      9.7505E-03
   5   10.000       9.959       9.883       9.722       9.388       8.748       7.625       5.833       3.261      9.7505E-03
   6   10.000       9.959       9.883       9.722       9.388       8.748       7.625       5.833       3.261      9.7505E-03
   7   10.000       9.959       9.883       9.722       9.388       8.748       7.625       5.833       3.261      9.7505E-03
   8   10.000       9.959       9.883       9.722       9.388       8.748       7.625       5.833       3.261      9.7505E-03
   9   10.000       9.959       9.883       9.722       9.388       8.748       7.625       5.833       3.261      9.7505E-03
  10   10.000       9.959       9.883       9.722       9.388       8.748       7.625       5.833       3.261      9.7505E-03

 HEAD WILL BE SAVED ON UNIT   51 AT END OF TIME STEP   62, STRESS PERIOD    2

 DRAWDOWN WILL BE SAVED ON UNIT   52 AT END OF TIME STEP   62, STRESS PERIOD    2
1
  VOLUMETRIC BUDGET FOR ENTIRE MODEL AT END OF TIME STEP   62, STRESS PERIOD   2
  ------------------------------------------------------------------------------

     CUMULATIVE VOLUMES      L**3       RATES FOR THIS TIME STEP      L**3/T
     ------------------                 ------------------------

           IN:                                      IN:
           ---                                      ---
             STORAGE =      263307.2812               STORAGE =        1657.5564
       CONSTANT HEAD =           0.0000         CONSTANT HEAD =           0.0000
               WELLS =           0.0000                 WELLS =           0.0000
     HEAD DEP BOUNDS =         345.0640       HEAD DEP BOUNDS =          23.5825

            TOTAL IN =      263652.3438              TOTAL IN =        1681.1389

          OUT:                                     OUT:
          ----                                     ----
             STORAGE =           0.0000               STORAGE =           0.0000
       CONSTANT HEAD =           0.0000         CONSTANT HEAD =           0.0000
               WELLS =           0.0000                 WELLS =           0.0000
     HEAD DEP BOUNDS =      263653.2812       HEAD DEP BOUNDS =        1681.1918

           TOTAL OUT =      263653.2812             TOTAL OUT =        1681.1918

            IN - OUT =          -0.9375              IN - OUT =      -5.2856E-02

 PERCENT DISCREPANCY =          -0.00     PERCENT DISCREPANCY =          -0.00






         TIME SUMMARY AT END OF TIME STEP   62 IN STRESS PERIOD    2
                    SECONDS     MINUTES      HOURS       DAYS        YEARS
                    -----------------------------------------------------------
   TIME STEP LENGTH  86400.      1440.0      24.000      1.0000     2.73785E-03
 STRESS PERIOD TIME 5.35680E+06  89280.      1488.0      62.000     0.16975    
         TOTAL TIME 5.44320E+06  90720.      1512.0      63.000     0.17248    
1
 
 SOLVING FOR HEAD 

 OUTPUT CONTROL FOR STRESS PERIOD    2   TIME STEP   63
    SAVE HEAD FOR ALL LAYERS
    SAVE DRAWDOWN FOR ALL LAYERS
    SAVE BUDGET
    PRINT HEAD FOR ALL LAYERS
    PRINT BUDGET
 UBDSV1 SAVING "         STORAGE" ON UNIT  53 AT TIME STEP 63, STRESS PERIOD   2
 UBDSV2 SAVING "   CONSTANT HEAD" ON UNIT  53 AT TIME STEP 63, STRESS PERIOD   2
 UBDSV1 SAVING "FLOW RIGHT FACE " ON UNIT  53 AT TIME STEP 63, STRESS PERIOD   2
 UBDSV1 SAVING "FLOW FRONT FACE " ON UNIT  53 AT TIME STEP 63, STRESS PERIOD   2
 UBDSV1 SAVING "FLOW LOWER FACE " ON UNIT  53 AT TIME STEP 63, STRESS PERIOD   2
1
              HEAD IN LAYER   1 AT END OF TIME STEP  63 IN STRESS PERIOD    2
  ---------------------------------------------------------------------------

            1           2           3           4           5           6           7           8           9          10
 ........................................................................................................................
   1   10.000       9.961       9.889       9.733       9.409       8.783       7.673       5.890       3.315      4.9656E-03
   2   10.000       9.961       9.889       9.733       9.409       8.783       7.673       5.890       3.315      4.9656E-03
   3   10.000       9.961       9.889       9.733       9.409       8.783       7.673       5.890       3.315      4.9656E-03
   4   10.000       9.961       9.889       9.733       9.409       8.783       7.673       5.890       3.315      4.9656E-03
   5   10.000       9.961       9.889       9.733       9.409       8.783       7.673       5.890       3.315      4.9656E-03
   6   10.000       9.961       9.889       9.733       9.409       8.783       7.673       5.890       3.315      4.9656E-03
   7   10.000       9.961       9.889       9.733       9.409       8.783       7.673       5.890       3.315      4.9656E-03
   8   10.000       9.961       9.889       9.733       9.409       8.783       7.673       5.890       3.315      4.9656E-03
   9   10.000       9.961       9.889       9.733       9.409       8.783       7.673       5.890       3.315      4.9656E-03
  10   10.000       9.961       9.889       9.733       9.409       8.783       7.673       5.890       3.315      4.9656E-03
1
              HEAD IN LAYER   2 AT END OF TIME STEP  63 IN STRESS PERIOD    2
  ---------------------------------------------------------------------------

            1           2           3           4           5           6           7           8           9          10
 ........................................................................................................................
   1   10.000       9.959       9.883       9.723       9.390       8.753       7.634       5.847       3.280      9.0703E-03
   2   10.000       9.959       9.883       9.723       9.390       8.753       7.634       5.847       3.280      9.0703E-03
   3   10.000       9.959       9.883       9.723       9.390       8.753       7.634       5.847       3.280      9.0703E-03
   4   10.000       9.959       9.883       9.723       9.390       8.753       7.634       5.847       3.280      9.0703E-03
   5   10.000       9.959       9.883       9.723       9.390       8.753       7.634       5.847       3.280      9.0703E-03
   6   10.000       9.959       9.883       9.723       9.390       8.753       7.634       5.847       3.280      9.0703E-03
   7   10.000       9.959       9.883       9.723       9.390       8.753       7.634       5.847       3.280      9.0703E-03
   8   10.000       9.959       9.883       9.723       9.390       8.753       7.634       5.847       3.280      9.0703E-03
   9   10.000       9.959       9.883       9.723       9.390       8.753       7.634       5.847       3.280      9.0703E-03
  10   10.000       9.959       9.883       9.723       9.390       8.753       7.634       5.847       3.280      9.0703E-03
1
              HEAD IN LAYER   3 AT END OF TIME STEP  63 IN STRESS PERIOD    2
  ---------------------------------------------------------------------------

            1           2           3           4           5           6           7           8           9          10
 ........................................................................................................................
   1   10.000       9.957       9.880       9.715       9.377       8.733       7.606       5.814       3.251      9.6507E-03
   2   10.000       9.957       9.880       9.715       9.377       8.733       7.606       5.814       3.251      9.6507E-03
   3   10.000       9.957       9.880       9.715       9.377       8.733       7.606       5.814       3.251      9.6507E-03
   4   10.000       9.957       9.880       9.715       9.377       8.733       7.606       5.814       3.251      9.6507E-03
   5   10.000       9.957       9.880       9.715       9.377       8.733       7.606       5.814       3.251      9.6507E-03
   6   10.000       9.957       9.880       9.715       9.377       8.733       7.606       5.814       3.251      9.6507E-03
   7   10.000       9.957       9.880       9.715       9.377       8.733       7.606       5.814       3.251      9.6507E-03
   8   10.000       9.957       9.880       9.715       9.377       8.733       7.606       5.814       3.251      9.6507E-03
   9   10.000       9.957       9.880       9.715       9.377       8.733       7.606       5.814       3.251      9.6507E-03
  10   10.000       9.957       9.880       9.715       9.377       8.733       7.606       5.814       3.251      9.6507E-03
1
              HEAD IN LAYER   4 AT END OF TIME STEP  63 IN STRESS PERIOD    2
  ---------------------------------------------------------------------------

            1           2           3           4           5           6           7           8           9          10
 ........................................................................................................................
   1   10.000       9.957       9.878       9.711       9.371       8.722       7.591       5.798       3.237      9.6775E-03
   2   10.000       9.957       9.878       9.711       9.371       8.722       7.591       5.798       3.237      9.6775E-03
   3   10.000       9.957       9.878       9.711       9.371       8.722       7.591       5.798       3.237      9.6775E-03
   4   10.000       9.957       9.878       9.711       9.371       8.722       7.591       5.798       3.237      9.6775E-03
   5   10.000       9.957       9.878       9.711       9.371       8.722       7.591       5.798       3.237      9.6775E-03
   6   10.000       9.957       9.878       9.711       9.371       8.722       7.591       5.798       3.237      9.6775E-03
   7   10.000       9.957       9.878       9.711       9.371       8.722       7.591       5.798       3.237      9.6775E-03
   8   10.000       9.957       9.878       9.711       9.371       8.722       7.591       5.798       3.237      9.6775E-03
   9   10.000       9.957       9.878       9.711       9.371       8.722       7.591       5.798       3.237      9.6775E-03
  10   10.000       9.957       9.878       9.711       9.371       8.722       7.591       5.798       3.237      9.6775E-03

 HEAD WILL BE SAVED ON UNIT   51 AT END OF TIME STEP   63, STRESS PERIOD    2

 DRAWDOWN WILL BE SAVED ON UNIT   52 AT END OF TIME STEP   63, STRESS PERIOD    2
1
  VOLUMETRIC BUDGET FOR ENTIRE MODEL AT END OF TIME STEP   63, STRESS PERIOD   2
  ------------------------------------------------------------------------------

     CUMULATIVE VOLUMES      L**3       RATES FOR THIS TIME STEP      L**3/T
     ------------------                 ------------------------

           IN:                                      IN:
           ---                                      ---
             STORAGE =      264950.6562               STORAGE =        1643.3702
       CONSTANT HEAD =           0.0000         CONSTANT HEAD =           0.0000
               WELLS =           0.0000                 WELLS =           0.0000
     HEAD DEP BOUNDS =         369.8876       HEAD DEP BOUNDS =          24.8236

            TOTAL IN =      265320.5312              TOTAL IN =        1668.1938

          OUT:                                     OUT:
          ----                                     ----
             STORAGE =           0.0000               STORAGE =           0.0000
       CONSTANT HEAD =           0.0000         CONSTANT HEAD =           0.0000
               WELLS =           0.0000                 WELLS =           0.0000
     HEAD DEP BOUNDS =      265321.5000       HEAD DEP BOUNDS =        1668.2031

           TOTAL OUT =      265321.5000             TOTAL OUT =        1668.2031

            IN - OUT =          -0.9688              IN - OUT =      -9.2773E-03

 PERCENT DISCREPANCY =          -0.00     PERCENT DISCREPANCY =          -0.00






         TIME SUMMARY AT END OF TIME STEP   63 IN STRESS PERIOD    2
                    SECONDS     MINUTES      HOURS       DAYS        YEARS
                    -----------------------------------------------------------
   TIME STEP LENGTH  86400.      1440.0      24.000      1.0000     2.73785E-03
 STRESS PERIOD TIME 5.44320E+06  90720.      1512.0      63.000     0.17248    
         TOTAL TIME 5.52960E+06  92160.      1536.0      64.000     0.17522    
1
 
 SOLVING FOR HEAD 

 OUTPUT CONTROL FOR STRESS PERIOD    2   TIME STEP   64
    SAVE HEAD FOR ALL LAYERS
    SAVE DRAWDOWN FOR ALL LAYERS
    SAVE BUDGET
    PRINT HEAD FOR ALL LAYERS
    PRINT BUDGET
 UBDSV1 SAVING "         STORAGE" ON UNIT  53 AT TIME STEP 64, STRESS PERIOD   2
 UBDSV2 SAVING "   CONSTANT HEAD" ON UNIT  53 AT TIME STEP 64, STRESS PERIOD   2
 UBDSV1 SAVING "FLOW RIGHT FACE " ON UNIT  53 AT TIME STEP 64, STRESS PERIOD   2
 UBDSV1 SAVING "FLOW FRONT FACE " ON UNIT  53 AT TIME STEP 64, STRESS PERIOD   2
 UBDSV1 SAVING "FLOW LOWER FACE " ON UNIT  53 AT TIME STEP 64, STRESS PERIOD   2
1
              HEAD IN LAYER   1 AT END OF TIME STEP  64 IN STRESS PERIOD    2
  ---------------------------------------------------------------------------

            1           2           3           4           5           6           7           8           9          10
 ........................................................................................................................
   1   10.000       9.959       9.884       9.724       9.392       8.756       7.639       5.854       3.289      4.9236E-03
   2   10.000       9.959       9.884       9.724       9.392       8.756       7.639       5.854       3.289      4.9236E-03
   3   10.000       9.959       9.884       9.724       9.392       8.756       7.639       5.854       3.289      4.9236E-03
   4   10.000       9.959       9.884       9.724       9.392       8.756       7.639       5.854       3.289      4.9236E-03
   5   10.000       9.959       9.884       9.724       9.392       8.756       7.639       5.854       3.289      4.9236E-03
   6   10.000       9.959       9.884       9.724       9.392       8.756       7.639       5.854       3.289      4.9236E-03
   7   10.000       9.959       9.884       9.724       9.392       8.756       7.639       5.854       3.289      4.9236E-03
   8   10.000       9.959       9.884       9.724       9.392       8.756       7.639       5.854       3.289      4.9236E-03
   9   10.000       9.959       9.884       9.724       9.392       8.756       7.639       5.854       3.289      4.9236E-03
  10   10.000       9.959       9.884       9.724       9.392       8.756       7.639       5.854       3.289      4.9236E-03
1
              HEAD IN LAYER   2 AT END OF TIME STEP  64 IN STRESS PERIOD    2
  ---------------------------------------------------------------------------

            1           2           3           4           5           6           7           8           9          10
 ........................................................................................................................
   1   10.000       9.957       9.878       9.713       9.373       8.727       7.600       5.812       3.256      9.0014E-03
   2   10.000       9.957       9.878       9.713       9.373       8.727       7.600       5.812       3.256      9.0014E-03
   3   10.000       9.957       9.878       9.713       9.373       8.727       7.600       5.812       3.256      9.0014E-03
   4   10.000       9.957       9.878       9.713       9.373       8.727       7.600       5.812       3.256      9.0014E-03
   5   10.000       9.957       9.878       9.713       9.373       8.727       7.600       5.812       3.256      9.0014E-03
   6   10.000       9.957       9.878       9.713       9.373       8.727       7.600       5.812       3.256      9.0014E-03
   7   10.000       9.957       9.878       9.713       9.373       8.727       7.600       5.812       3.256      9.0014E-03
   8   10.000       9.957       9.878       9.713       9.373       8.727       7.600       5.812       3.256      9.0014E-03
   9   10.000       9.957       9.878       9.713       9.373       8.727       7.600       5.812       3.256      9.0014E-03
  10   10.000       9.957       9.878       9.713       9.373       8.727       7.600       5.812       3.256      9.0014E-03
1
              HEAD IN LAYER   3 AT END OF TIME STEP  64 IN STRESS PERIOD    2
  ---------------------------------------------------------------------------

            1           2           3           4           5           6           7           8           9          10
 ........................................................................................................................
   1   10.000       9.955       9.875       9.705       9.360       8.706       7.572       5.780       3.227      9.5789E-03
   2   10.000       9.955       9.875       9.705       9.360       8.706       7.572       5.780       3.227      9.5789E-03
   3   10.000       9.955       9.875       9.705       9.360       8.706       7.572       5.780       3.227      9.5789E-03
   4   10.000       9.955       9.875       9.705       9.360       8.706       7.572       5.780       3.227      9.5789E-03
   5   10.000       9.955       9.875       9.705       9.360       8.706       7.572       5.780       3.227      9.5789E-03
   6   10.000       9.955       9.875       9.705       9.360       8.706       7.572       5.780       3.227      9.5789E-03
   7   10.000       9.955       9.875       9.705       9.360       8.706       7.572       5.780       3.227      9.5789E-03
   8   10.000       9.955       9.875       9.705       9.360       8.706       7.572       5.780       3.227      9.5789E-03
   9   10.000       9.955       9.875       9.705       9.360       8.706       7.572       5.780       3.227      9.5789E-03
  10   10.000       9.955       9.875       9.705       9.360       8.706       7.572       5.780       3.227      9.5789E-03
1
              HEAD IN LAYER   4 AT END OF TIME STEP  64 IN STRESS PERIOD    2
  ---------------------------------------------------------------------------

            1           2           3           4           5           6           7           8           9          10
 ........................................................................................................................
   1   10.000       9.954       9.873       9.701       9.353       8.696       7.558       5.763       3.213      9.6062E-03
   2   10.000       9.954       9.873       9.701       9.353       8.696       7.558       5.763       3.213      9.6062E-03
   3   10.000       9.954       9.873       9.701       9.353       8.696       7.558       5.763       3.213      9.6062E-03
   4   10.000       9.954       9.873       9.701       9.353       8.696       7.558       5.763       3.213      9.6062E-03
   5   10.000       9.954       9.873       9.701       9.353       8.696       7.558       5.763       3.213      9.6062E-03
   6   10.000       9.954       9.873       9.701       9.353       8.696       7.558       5.763       3.213      9.6062E-03
   7   10.000       9.954       9.873       9.701       9.353       8.696       7.558       5.763       3.213      9.6062E-03
   8   10.000       9.954       9.873       9.701       9.353       8.696       7.558       5.763       3.213      9.6062E-03
   9   10.000       9.954       9.873       9.701       9.353       8.696       7.558       5.763       3.213      9.6062E-03
  10   10.000       9.954       9.873       9.701       9.353       8.696       7.558       5.763       3.213      9.6062E-03

 HEAD WILL BE SAVED ON UNIT   51 AT END OF TIME STEP   64, STRESS PERIOD    2

 DRAWDOWN WILL BE SAVED ON UNIT   52 AT END OF TIME STEP   64, STRESS PERIOD    2
1
  VOLUMETRIC BUDGET FOR ENTIRE MODEL AT END OF TIME STEP   64, STRESS PERIOD   2
  ------------------------------------------------------------------------------

     CUMULATIVE VOLUMES      L**3       RATES FOR THIS TIME STEP      L**3/T
     ------------------                 ------------------------

           IN:                                      IN:
           ---                                      ---
             STORAGE =      266580.0312               STORAGE =        1629.3818
       CONSTANT HEAD =           0.0000         CONSTANT HEAD =           0.0000
               WELLS =           0.0000                 WELLS =           0.0000
     HEAD DEP BOUNDS =         395.9156       HEAD DEP BOUNDS =          26.0280

            TOTAL IN =      266975.9375              TOTAL IN =        1655.4099

          OUT:                                     OUT:
          ----                                     ----
             STORAGE =           0.0000               STORAGE =           0.0000
       CONSTANT HEAD =           0.0000         CONSTANT HEAD =           0.0000
               WELLS =           0.0000                 WELLS =           0.0000
     HEAD DEP BOUNDS =      266977.0000       HEAD DEP BOUNDS =        1655.5048

           TOTAL OUT =      266977.0000             TOTAL OUT =        1655.5048

            IN - OUT =          -1.0625              IN - OUT =      -9.4849E-02

 PERCENT DISCREPANCY =          -0.00     PERCENT DISCREPANCY =          -0.01






         TIME SUMMARY AT END OF TIME STEP   64 IN STRESS PERIOD    2
                    SECONDS     MINUTES      HOURS       DAYS        YEARS
                    -----------------------------------------------------------
   TIME STEP LENGTH  86400.      1440.0      24.000      1.0000     2.73785E-03
 STRESS PERIOD TIME 5.52960E+06  92160.      1536.0      64.000     0.17522    
         TOTAL TIME 5.61600E+06  93600.      1560.0      65.000     0.17796    
1
 
 SOLVING FOR HEAD 

 OUTPUT CONTROL FOR STRESS PERIOD    2   TIME STEP   65
    SAVE HEAD FOR ALL LAYERS
    SAVE DRAWDOWN FOR ALL LAYERS
    SAVE BUDGET
    PRINT HEAD FOR ALL LAYERS
    PRINT BUDGET
 UBDSV1 SAVING "         STORAGE" ON UNIT  53 AT TIME STEP 65, STRESS PERIOD   2
 UBDSV2 SAVING "   CONSTANT HEAD" ON UNIT  53 AT TIME STEP 65, STRESS PERIOD   2
 UBDSV1 SAVING "FLOW RIGHT FACE " ON UNIT  53 AT TIME STEP 65, STRESS PERIOD   2
 UBDSV1 SAVING "FLOW FRONT FACE " ON UNIT  53 AT TIME STEP 65, STRESS PERIOD   2
 UBDSV1 SAVING "FLOW LOWER FACE " ON UNIT  53 AT TIME STEP 65, STRESS PERIOD   2
1
              HEAD IN LAYER   1 AT END OF TIME STEP  65 IN STRESS PERIOD    2
  ---------------------------------------------------------------------------

            1           2           3           4           5           6           7           8           9          10
 ........................................................................................................................
   1   10.000       9.957       9.879       9.714       9.375       8.730       7.605       5.819       3.264      4.8826E-03
   2   10.000       9.957       9.879       9.714       9.375       8.730       7.605       5.819       3.264      4.8826E-03
   3   10.000       9.957       9.879       9.714       9.375       8.730       7.605       5.819       3.264      4.8826E-03
   4   10.000       9.957       9.879       9.714       9.375       8.730       7.605       5.819       3.264      4.8826E-03
   5   10.000       9.957       9.879       9.714       9.375       8.730       7.605       5.819       3.264      4.8826E-03
   6   10.000       9.957       9.879       9.714       9.375       8.730       7.605       5.819       3.264      4.8826E-03
   7   10.000       9.957       9.879       9.714       9.375       8.730       7.605       5.819       3.264      4.8826E-03
   8   10.000       9.957       9.879       9.714       9.375       8.730       7.605       5.819       3.264      4.8826E-03
   9   10.000       9.957       9.879       9.714       9.375       8.730       7.605       5.819       3.264      4.8826E-03
  10   10.000       9.957       9.879       9.714       9.375       8.730       7.605       5.819       3.264      4.8826E-03
1
              HEAD IN LAYER   2 AT END OF TIME STEP  65 IN STRESS PERIOD    2
  ---------------------------------------------------------------------------

            1           2           3           4           5           6           7           8           9          10
 ........................................................................................................................
   1   10.000       9.955       9.873       9.702       9.356       8.701       7.567       5.777       3.231      8.9340E-03
   2   10.000       9.955       9.873       9.702       9.356       8.701       7.567       5.777       3.231      8.9340E-03
   3   10.000       9.955       9.873       9.702       9.356       8.701       7.567       5.777       3.231      8.9340E-03
   4   10.000       9.955       9.873       9.702       9.356       8.701       7.567       5.777       3.231      8.9340E-03
   5   10.000       9.955       9.873       9.702       9.356       8.701       7.567       5.777       3.231      8.9340E-03
   6   10.000       9.955       9.873       9.702       9.356       8.701       7.567       5.777       3.231      8.9340E-03
   7   10.000       9.955       9.873       9.702       9.356       8.701       7.567       5.777       3.231      8.9340E-03
   8   10.000       9.955       9.873       9.702       9.356       8.701       7.567       5.777       3.231      8.9340E-03
   9   10.000       9.955       9.873       9.702       9.356       8.701       7.567       5.777       3.231      8.9340E-03
  10   10.000       9.955       9.873       9.702       9.356       8.701       7.567       5.777       3.231      8.9340E-03
1
              HEAD IN LAYER   3 AT END OF TIME STEP  65 IN STRESS PERIOD    2
  ---------------------------------------------------------------------------

            1           2           3           4           5           6           7           8           9          10
 ........................................................................................................................
   1   10.000       9.953       9.869       9.695       9.342       8.681       7.539       5.745       3.203      9.5088E-03
   2   10.000       9.953       9.869       9.695       9.342       8.681       7.539       5.745       3.203      9.5088E-03
   3   10.000       9.953       9.869       9.695       9.342       8.681       7.539       5.745       3.203      9.5088E-03
   4   10.000       9.953       9.869       9.695       9.342       8.681       7.539       5.745       3.203      9.5088E-03
   5   10.000       9.953       9.869       9.695       9.342       8.681       7.539       5.745       3.203      9.5088E-03
   6   10.000       9.953       9.869       9.695       9.342       8.681       7.539       5.745       3.203      9.5088E-03
   7   10.000       9.953       9.869       9.695       9.342       8.681       7.539       5.745       3.203      9.5088E-03
   8   10.000       9.953       9.869       9.695       9.342       8.681       7.539       5.745       3.203      9.5088E-03
   9   10.000       9.953       9.869       9.695       9.342       8.681       7.539       5.745       3.203      9.5088E-03
  10   10.000       9.953       9.869       9.695       9.342       8.681       7.539       5.745       3.203      9.5088E-03
1
              HEAD IN LAYER   4 AT END OF TIME STEP  65 IN STRESS PERIOD    2
  ---------------------------------------------------------------------------

            1           2           3           4           5           6           7           8           9          10
 ........................................................................................................................
   1   10.000       9.952       9.867       9.691       9.336       8.670       7.525       5.729       3.189      9.5363E-03
   2   10.000       9.952       9.867       9.691       9.336       8.670       7.525       5.729       3.189      9.5363E-03
   3   10.000       9.952       9.867       9.691       9.336       8.670       7.525       5.729       3.189      9.5363E-03
   4   10.000       9.952       9.867       9.691       9.336       8.670       7.525       5.729       3.189      9.5363E-03
   5   10.000       9.952       9.867       9.691       9.336       8.670       7.525       5.729       3.189      9.5363E-03
   6   10.000       9.952       9.867       9.691       9.336       8.670       7.525       5.729       3.189      9.5363E-03
   7   10.000       9.952       9.867       9.691       9.336       8.670       7.525       5.729       3.189      9.5363E-03
   8   10.000       9.952       9.867       9.691       9.336       8.670       7.525       5.729       3.189      9.5363E-03
   9   10.000       9.952       9.867       9.691       9.336       8.670       7.525       5.729       3.189      9.5363E-03
  10   10.000       9.952       9.867       9.691       9.336       8.670       7.525       5.729       3.189      9.5363E-03

 HEAD WILL BE SAVED ON UNIT   51 AT END OF TIME STEP   65, STRESS PERIOD    2

 DRAWDOWN WILL BE SAVED ON UNIT   52 AT END OF TIME STEP   65, STRESS PERIOD    2
1
  VOLUMETRIC BUDGET FOR ENTIRE MODEL AT END OF TIME STEP   65, STRESS PERIOD   2
  ------------------------------------------------------------------------------

     CUMULATIVE VOLUMES      L**3       RATES FOR THIS TIME STEP      L**3/T
     ------------------                 ------------------------

           IN:                                      IN:
           ---                                      ---
             STORAGE =      268195.6875               STORAGE =        1615.6675
       CONSTANT HEAD =           0.0000         CONSTANT HEAD =           0.0000
               WELLS =           0.0000                 WELLS =           0.0000
     HEAD DEP BOUNDS =         423.2472       HEAD DEP BOUNDS =          27.3316

            TOTAL IN =      268618.9375              TOTAL IN =        1642.9990

          OUT:                                     OUT:
          ----                                     ----
             STORAGE =           0.0000               STORAGE =           0.0000
       CONSTANT HEAD =           0.0000         CONSTANT HEAD =           0.0000
               WELLS =           0.0000                 WELLS =           0.0000
     HEAD DEP BOUNDS =      268620.0938       HEAD DEP BOUNDS =        1643.0862

           TOTAL OUT =      268620.0938             TOTAL OUT =        1643.0862

            IN - OUT =          -1.1562              IN - OUT =      -8.7158E-02

 PERCENT DISCREPANCY =          -0.00     PERCENT DISCREPANCY =          -0.01






         TIME SUMMARY AT END OF TIME STEP   65 IN STRESS PERIOD    2
                    SECONDS     MINUTES      HOURS       DAYS        YEARS
                    -----------------------------------------------------------
   TIME STEP LENGTH  86400.      1440.0      24.000      1.0000     2.73785E-03
 STRESS PERIOD TIME 5.61600E+06  93600.      1560.0      65.000     0.17796    
         TOTAL TIME 5.70240E+06  95040.      1584.0      66.000     0.18070    
1
 
 SOLVING FOR HEAD 

 OUTPUT CONTROL FOR STRESS PERIOD    2   TIME STEP   66
    SAVE HEAD FOR ALL LAYERS
    SAVE DRAWDOWN FOR ALL LAYERS
    SAVE BUDGET
    PRINT HEAD FOR ALL LAYERS
    PRINT BUDGET
 UBDSV1 SAVING "         STORAGE" ON UNIT  53 AT TIME STEP 66, STRESS PERIOD   2
 UBDSV2 SAVING "   CONSTANT HEAD" ON UNIT  53 AT TIME STEP 66, STRESS PERIOD   2
 UBDSV1 SAVING "FLOW RIGHT FACE " ON UNIT  53 AT TIME STEP 66, STRESS PERIOD   2
 UBDSV1 SAVING "FLOW FRONT FACE " ON UNIT  53 AT TIME STEP 66, STRESS PERIOD   2
 UBDSV1 SAVING "FLOW LOWER FACE " ON UNIT  53 AT TIME STEP 66, STRESS PERIOD   2
1
              HEAD IN LAYER   1 AT END OF TIME STEP  66 IN STRESS PERIOD    2
  ---------------------------------------------------------------------------

            1           2           3           4           5           6           7           8           9          10
 ........................................................................................................................
   1   10.000       9.955       9.874       9.703       9.358       8.704       7.572       5.784       3.240      4.8425E-03
   2   10.000       9.955       9.874       9.703       9.358       8.704       7.572       5.784       3.240      4.8425E-03
   3   10.000       9.955       9.874       9.703       9.358       8.704       7.572       5.784       3.240      4.8425E-03
   4   10.000       9.955       9.874       9.703       9.358       8.704       7.572       5.784       3.240      4.8425E-03
   5   10.000       9.955       9.874       9.703       9.358       8.704       7.572       5.784       3.240      4.8425E-03
   6   10.000       9.955       9.874       9.703       9.358       8.704       7.572       5.784       3.240      4.8425E-03
   7   10.000       9.955       9.874       9.703       9.358       8.704       7.572       5.784       3.240      4.8425E-03
   8   10.000       9.955       9.874       9.703       9.358       8.704       7.572       5.784       3.240      4.8425E-03
   9   10.000       9.955       9.874       9.703       9.358       8.704       7.572       5.784       3.240      4.8425E-03
  10   10.000       9.955       9.874       9.703       9.358       8.704       7.572       5.784       3.240      4.8425E-03
1
              HEAD IN LAYER   2 AT END OF TIME STEP  66 IN STRESS PERIOD    2
  ---------------------------------------------------------------------------

            1           2           3           4           5           6           7           8           9          10
 ........................................................................................................................
   1   10.000       9.952       9.868       9.692       9.338       8.675       7.534       5.743       3.208      8.8681E-03
   2   10.000       9.952       9.868       9.692       9.338       8.675       7.534       5.743       3.208      8.8681E-03
   3   10.000       9.952       9.868       9.692       9.338       8.675       7.534       5.743       3.208      8.8681E-03
   4   10.000       9.952       9.868       9.692       9.338       8.675       7.534       5.743       3.208      8.8681E-03
   5   10.000       9.952       9.868       9.692       9.338       8.675       7.534       5.743       3.208      8.8681E-03
   6   10.000       9.952       9.868       9.692       9.338       8.675       7.534       5.743       3.208      8.8681E-03
   7   10.000       9.952       9.868       9.692       9.338       8.675       7.534       5.743       3.208      8.8681E-03
   8   10.000       9.952       9.868       9.692       9.338       8.675       7.534       5.743       3.208      8.8681E-03
   9   10.000       9.952       9.868       9.692       9.338       8.675       7.534       5.743       3.208      8.8681E-03
  10   10.000       9.952       9.868       9.692       9.338       8.675       7.534       5.743       3.208      8.8681E-03
1
              HEAD IN LAYER   3 AT END OF TIME STEP  66 IN STRESS PERIOD    2
  ---------------------------------------------------------------------------

            1           2           3           4           5           6           7           8           9          10
 ........................................................................................................................
   1   10.000       9.951       9.864       9.684       9.325       8.655       7.506       5.712       3.180      9.4401E-03
   2   10.000       9.951       9.864       9.684       9.325       8.655       7.506       5.712       3.180      9.4401E-03
   3   10.000       9.951       9.864       9.684       9.325       8.655       7.506       5.712       3.180      9.4401E-03
   4   10.000       9.951       9.864       9.684       9.325       8.655       7.506       5.712       3.180      9.4401E-03
   5   10.000       9.951       9.864       9.684       9.325       8.655       7.506       5.712       3.180      9.4401E-03
   6   10.000       9.951       9.864       9.684       9.325       8.655       7.506       5.712       3.180      9.4401E-03
   7   10.000       9.951       9.864       9.684       9.325       8.655       7.506       5.712       3.180      9.4401E-03
   8   10.000       9.951       9.864       9.684       9.325       8.655       7.506       5.712       3.180      9.4401E-03
   9   10.000       9.951       9.864       9.684       9.325       8.655       7.506       5.712       3.180      9.4401E-03
  10   10.000       9.951       9.864       9.684       9.325       8.655       7.506       5.712       3.180      9.4401E-03
1
              HEAD IN LAYER   4 AT END OF TIME STEP  66 IN STRESS PERIOD    2
  ---------------------------------------------------------------------------

            1           2           3           4           5           6           7           8           9          10
 ........................................................................................................................
   1   10.000       9.950       9.862       9.681       9.318       8.644       7.492       5.696       3.167      9.4680E-03
   2   10.000       9.950       9.862       9.681       9.318       8.644       7.492       5.696       3.167      9.4680E-03
   3   10.000       9.950       9.862       9.681       9.318       8.644       7.492       5.696       3.167      9.4680E-03
   4   10.000       9.950       9.862       9.681       9.318       8.644       7.492       5.696       3.167      9.4680E-03
   5   10.000       9.950       9.862       9.681       9.318       8.644       7.492       5.696       3.167      9.4680E-03
   6   10.000       9.950       9.862       9.681       9.318       8.644       7.492       5.696       3.167      9.4680E-03
   7   10.000       9.950       9.862       9.681       9.318       8.644       7.492       5.696       3.167      9.4680E-03
   8   10.000       9.950       9.862       9.681       9.318       8.644       7.492       5.696       3.167      9.4680E-03
   9   10.000       9.950       9.862       9.681       9.318       8.644       7.492       5.696       3.167      9.4680E-03
  10   10.000       9.950       9.862       9.681       9.318       8.644       7.492       5.696       3.167      9.4680E-03

 HEAD WILL BE SAVED ON UNIT   51 AT END OF TIME STEP   66, STRESS PERIOD    2

 DRAWDOWN WILL BE SAVED ON UNIT   52 AT END OF TIME STEP   66, STRESS PERIOD    2
1
  VOLUMETRIC BUDGET FOR ENTIRE MODEL AT END OF TIME STEP   66, STRESS PERIOD   2
  ------------------------------------------------------------------------------

     CUMULATIVE VOLUMES      L**3       RATES FOR THIS TIME STEP      L**3/T
     ------------------                 ------------------------

           IN:                                      IN:
           ---                                      ---
             STORAGE =      269797.9375               STORAGE =        1602.2386
       CONSTANT HEAD =           0.0000         CONSTANT HEAD =           0.0000
               WELLS =           0.0000                 WELLS =           0.0000
     HEAD DEP BOUNDS =         451.9131       HEAD DEP BOUNDS =          28.6658

            TOTAL IN =      270249.8438              TOTAL IN =        1630.9044

          OUT:                                     OUT:
          ----                                     ----
             STORAGE =           0.0000               STORAGE =           0.0000
       CONSTANT HEAD =           0.0000         CONSTANT HEAD =           0.0000
               WELLS =           0.0000                 WELLS =           0.0000
     HEAD DEP BOUNDS =      270251.0312       HEAD DEP BOUNDS =        1630.9388

           TOTAL OUT =      270251.0312             TOTAL OUT =        1630.9388

            IN - OUT =          -1.1875              IN - OUT =      -3.4424E-02

 PERCENT DISCREPANCY =          -0.00     PERCENT DISCREPANCY =          -0.00






         TIME SUMMARY AT END OF TIME STEP   66 IN STRESS PERIOD    2
                    SECONDS     MINUTES      HOURS       DAYS        YEARS
                    -----------------------------------------------------------
   TIME STEP LENGTH  86400.      1440.0      24.000      1.0000     2.73785E-03
 STRESS PERIOD TIME 5.70240E+06  95040.      1584.0      66.000     0.18070    
         TOTAL TIME 5.78880E+06  96480.      1608.0      67.000     0.18344    
1
 
 SOLVING FOR HEAD 

 OUTPUT CONTROL FOR STRESS PERIOD    2   TIME STEP   67
    SAVE HEAD FOR ALL LAYERS
    SAVE DRAWDOWN FOR ALL LAYERS
    SAVE BUDGET
    PRINT HEAD FOR ALL LAYERS
    PRINT BUDGET
 UBDSV1 SAVING "         STORAGE" ON UNIT  53 AT TIME STEP 67, STRESS PERIOD   2
 UBDSV2 SAVING "   CONSTANT HEAD" ON UNIT  53 AT TIME STEP 67, STRESS PERIOD   2
 UBDSV1 SAVING "FLOW RIGHT FACE " ON UNIT  53 AT TIME STEP 67, STRESS PERIOD   2
 UBDSV1 SAVING "FLOW FRONT FACE " ON UNIT  53 AT TIME STEP 67, STRESS PERIOD   2
 UBDSV1 SAVING "FLOW LOWER FACE " ON UNIT  53 AT TIME STEP 67, STRESS PERIOD   2
1
              HEAD IN LAYER   1 AT END OF TIME STEP  67 IN STRESS PERIOD    2
  ---------------------------------------------------------------------------

            1           2           3           4           5           6           7           8           9          10
 ........................................................................................................................
   1   10.000       9.953       9.868       9.693       9.340       8.678       7.539       5.750       3.216      4.8033E-03
   2   10.000       9.953       9.868       9.693       9.340       8.678       7.539       5.750       3.216      4.8033E-03
   3   10.000       9.953       9.868       9.693       9.340       8.678       7.539       5.750       3.216      4.8033E-03
   4   10.000       9.953       9.868       9.693       9.340       8.678       7.539       5.750       3.216      4.8033E-03
   5   10.000       9.953       9.868       9.693       9.340       8.678       7.539       5.750       3.216      4.8033E-03
   6   10.000       9.953       9.868       9.693       9.340       8.678       7.539       5.750       3.216      4.8033E-03
   7   10.000       9.953       9.868       9.693       9.340       8.678       7.539       5.750       3.216      4.8033E-03
   8   10.000       9.953       9.868       9.693       9.340       8.678       7.539       5.750       3.216      4.8033E-03
   9   10.000       9.953       9.868       9.693       9.340       8.678       7.539       5.750       3.216      4.8033E-03
  10   10.000       9.953       9.868       9.693       9.340       8.678       7.539       5.750       3.216      4.8033E-03
1
              HEAD IN LAYER   2 AT END OF TIME STEP  67 IN STRESS PERIOD    2
  ---------------------------------------------------------------------------

            1           2           3           4           5           6           7           8           9          10
 ........................................................................................................................
   1   10.000       9.950       9.862       9.682       9.321       8.649       7.501       5.710       3.185      8.8037E-03
   2   10.000       9.950       9.862       9.682       9.321       8.649       7.501       5.710       3.185      8.8037E-03
   3   10.000       9.950       9.862       9.682       9.321       8.649       7.501       5.710       3.185      8.8037E-03
   4   10.000       9.950       9.862       9.682       9.321       8.649       7.501       5.710       3.185      8.8037E-03
   5   10.000       9.950       9.862       9.682       9.321       8.649       7.501       5.710       3.185      8.8037E-03
   6   10.000       9.950       9.862       9.682       9.321       8.649       7.501       5.710       3.185      8.8037E-03
   7   10.000       9.950       9.862       9.682       9.321       8.649       7.501       5.710       3.185      8.8037E-03
   8   10.000       9.950       9.862       9.682       9.321       8.649       7.501       5.710       3.185      8.8037E-03
   9   10.000       9.950       9.862       9.682       9.321       8.649       7.501       5.710       3.185      8.8037E-03
  10   10.000       9.950       9.862       9.682       9.321       8.649       7.501       5.710       3.185      8.8037E-03
1
              HEAD IN LAYER   3 AT END OF TIME STEP  67 IN STRESS PERIOD    2
  ---------------------------------------------------------------------------

            1           2           3           4           5           6           7           8           9          10
 ........................................................................................................................
   1   10.000       9.948       9.858       9.674       9.307       8.629       7.474       5.679       3.158      9.3729E-03
   2   10.000       9.948       9.858       9.674       9.307       8.629       7.474       5.679       3.158      9.3729E-03
   3   10.000       9.948       9.858       9.674       9.307       8.629       7.474       5.679       3.158      9.3729E-03
   4   10.000       9.948       9.858       9.674       9.307       8.629       7.474       5.679       3.158      9.3729E-03
   5   10.000       9.948       9.858       9.674       9.307       8.629       7.474       5.679       3.158      9.3729E-03
   6   10.000       9.948       9.858       9.674       9.307       8.629       7.474       5.679       3.158      9.3729E-03
   7   10.000       9.948       9.858       9.674       9.307       8.629       7.474       5.679       3.158      9.3729E-03
   8   10.000       9.948       9.858       9.674       9.307       8.629       7.474       5.679       3.158      9.3729E-03
   9   10.000       9.948       9.858       9.674       9.307       8.629       7.474       5.679       3.158      9.3729E-03
  10   10.000       9.948       9.858       9.674       9.307       8.629       7.474       5.679       3.158      9.3729E-03
1
              HEAD IN LAYER   4 AT END OF TIME STEP  67 IN STRESS PERIOD    2
  ---------------------------------------------------------------------------

            1           2           3           4           5           6           7           8           9          10
 ........................................................................................................................
   1   10.000       9.948       9.856       9.670       9.301       8.619       7.460       5.663       3.144      9.4011E-03
   2   10.000       9.948       9.856       9.670       9.301       8.619       7.460       5.663       3.144      9.4011E-03
   3   10.000       9.948       9.856       9.670       9.301       8.619       7.460       5.663       3.144      9.4011E-03
   4   10.000       9.948       9.856       9.670       9.301       8.619       7.460       5.663       3.144      9.4011E-03
   5   10.000       9.948       9.856       9.670       9.301       8.619       7.460       5.663       3.144      9.4011E-03
   6   10.000       9.948       9.856       9.670       9.301       8.619       7.460       5.663       3.144      9.4011E-03
   7   10.000       9.948       9.856       9.670       9.301       8.619       7.460       5.663       3.144      9.4011E-03
   8   10.000       9.948       9.856       9.670       9.301       8.619       7.460       5.663       3.144      9.4011E-03
   9   10.000       9.948       9.856       9.670       9.301       8.619       7.460       5.663       3.144      9.4011E-03
  10   10.000       9.948       9.856       9.670       9.301       8.619       7.460       5.663       3.144      9.4011E-03

 HEAD WILL BE SAVED ON UNIT   51 AT END OF TIME STEP   67, STRESS PERIOD    2

 DRAWDOWN WILL BE SAVED ON UNIT   52 AT END OF TIME STEP   67, STRESS PERIOD    2
1
  VOLUMETRIC BUDGET FOR ENTIRE MODEL AT END OF TIME STEP   67, STRESS PERIOD   2
  ------------------------------------------------------------------------------

     CUMULATIVE VOLUMES      L**3       RATES FOR THIS TIME STEP      L**3/T
     ------------------                 ------------------------

           IN:                                      IN:
           ---                                      ---
             STORAGE =      271386.9688               STORAGE =        1589.0184
       CONSTANT HEAD =           0.0000         CONSTANT HEAD =           0.0000
               WELLS =           0.0000                 WELLS =           0.0000
     HEAD DEP BOUNDS =         481.8762       HEAD DEP BOUNDS =          29.9631

            TOTAL IN =      271868.8438              TOTAL IN =        1618.9816

          OUT:                                     OUT:
          ----                                     ----
             STORAGE =           0.0000               STORAGE =           0.0000
       CONSTANT HEAD =           0.0000         CONSTANT HEAD =           0.0000
               WELLS =           0.0000                 WELLS =           0.0000
     HEAD DEP BOUNDS =      271870.0938       HEAD DEP BOUNDS =        1619.0524

           TOTAL OUT =      271870.0938             TOTAL OUT =        1619.0524

            IN - OUT =          -1.2500              IN - OUT =      -7.0801E-02

 PERCENT DISCREPANCY =          -0.00     PERCENT DISCREPANCY =          -0.00






         TIME SUMMARY AT END OF TIME STEP   67 IN STRESS PERIOD    2
                    SECONDS     MINUTES      HOURS       DAYS        YEARS
                    -----------------------------------------------------------
   TIME STEP LENGTH  86400.      1440.0      24.000      1.0000     2.73785E-03
 STRESS PERIOD TIME 5.78880E+06  96480.      1608.0      67.000     0.18344    
         TOTAL TIME 5.87520E+06  97920.      1632.0      68.000     0.18617    
1
 
 SOLVING FOR HEAD 

 OUTPUT CONTROL FOR STRESS PERIOD    2   TIME STEP   68
    SAVE HEAD FOR ALL LAYERS
    SAVE DRAWDOWN FOR ALL LAYERS
    SAVE BUDGET
    PRINT HEAD FOR ALL LAYERS
    PRINT BUDGET
 UBDSV1 SAVING "         STORAGE" ON UNIT  53 AT TIME STEP 68, STRESS PERIOD   2
 UBDSV2 SAVING "   CONSTANT HEAD" ON UNIT  53 AT TIME STEP 68, STRESS PERIOD   2
 UBDSV1 SAVING "FLOW RIGHT FACE " ON UNIT  53 AT TIME STEP 68, STRESS PERIOD   2
 UBDSV1 SAVING "FLOW FRONT FACE " ON UNIT  53 AT TIME STEP 68, STRESS PERIOD   2
 UBDSV1 SAVING "FLOW LOWER FACE " ON UNIT  53 AT TIME STEP 68, STRESS PERIOD   2
1
              HEAD IN LAYER   1 AT END OF TIME STEP  68 IN STRESS PERIOD    2
  ---------------------------------------------------------------------------

            1           2           3           4           5           6           7           8           9          10
 ........................................................................................................................
   1   10.000       9.950       9.863       9.683       9.323       8.652       7.506       5.717       3.193      4.7651E-03
   2   10.000       9.950       9.863       9.683       9.323       8.652       7.506       5.717       3.193      4.7651E-03
   3   10.000       9.950       9.863       9.683       9.323       8.652       7.506       5.717       3.193      4.7651E-03
   4   10.000       9.950       9.863       9.683       9.323       8.652       7.506       5.717       3.193      4.7651E-03
   5   10.000       9.950       9.863       9.683       9.323       8.652       7.506       5.717       3.193      4.7651E-03
   6   10.000       9.950       9.863       9.683       9.323       8.652       7.506       5.717       3.193      4.7651E-03
   7   10.000       9.950       9.863       9.683       9.323       8.652       7.506       5.717       3.193      4.7651E-03
   8   10.000       9.950       9.863       9.683       9.323       8.652       7.506       5.717       3.193      4.7651E-03
   9   10.000       9.950       9.863       9.683       9.323       8.652       7.506       5.717       3.193      4.7651E-03
  10   10.000       9.950       9.863       9.683       9.323       8.652       7.506       5.717       3.193      4.7651E-03
1
              HEAD IN LAYER   2 AT END OF TIME STEP  68 IN STRESS PERIOD    2
  ---------------------------------------------------------------------------

            1           2           3           4           5           6           7           8           9          10
 ........................................................................................................................
   1   10.000       9.948       9.857       9.671       9.303       8.623       7.469       5.677       3.162      8.7406E-03
   2   10.000       9.948       9.857       9.671       9.303       8.623       7.469       5.677       3.162      8.7406E-03
   3   10.000       9.948       9.857       9.671       9.303       8.623       7.469       5.677       3.162      8.7406E-03
   4   10.000       9.948       9.857       9.671       9.303       8.623       7.469       5.677       3.162      8.7406E-03
   5   10.000       9.948       9.857       9.671       9.303       8.623       7.469       5.677       3.162      8.7406E-03
   6   10.000       9.948       9.857       9.671       9.303       8.623       7.469       5.677       3.162      8.7406E-03
   7   10.000       9.948       9.857       9.671       9.303       8.623       7.469       5.677       3.162      8.7406E-03
   8   10.000       9.948       9.857       9.671       9.303       8.623       7.469       5.677       3.162      8.7406E-03
   9   10.000       9.948       9.857       9.671       9.303       8.623       7.469       5.677       3.162      8.7406E-03
  10   10.000       9.948       9.857       9.671       9.303       8.623       7.469       5.677       3.162      8.7406E-03
1
              HEAD IN LAYER   3 AT END OF TIME STEP  68 IN STRESS PERIOD    2
  ---------------------------------------------------------------------------

            1           2           3           4           5           6           7           8           9          10
 ........................................................................................................................
   1   10.000       9.946       9.853       9.663       9.290       8.603       7.441       5.646       3.136      9.3071E-03
   2   10.000       9.946       9.853       9.663       9.290       8.603       7.441       5.646       3.136      9.3071E-03
   3   10.000       9.946       9.853       9.663       9.290       8.603       7.441       5.646       3.136      9.3071E-03
   4   10.000       9.946       9.853       9.663       9.290       8.603       7.441       5.646       3.136      9.3071E-03
   5   10.000       9.946       9.853       9.663       9.290       8.603       7.441       5.646       3.136      9.3071E-03
   6   10.000       9.946       9.853       9.663       9.290       8.603       7.441       5.646       3.136      9.3071E-03
   7   10.000       9.946       9.853       9.663       9.290       8.603       7.441       5.646       3.136      9.3071E-03
   8   10.000       9.946       9.853       9.663       9.290       8.603       7.441       5.646       3.136      9.3071E-03
   9   10.000       9.946       9.853       9.663       9.290       8.603       7.441       5.646       3.136      9.3071E-03
  10   10.000       9.946       9.853       9.663       9.290       8.603       7.441       5.646       3.136      9.3071E-03
1
              HEAD IN LAYER   4 AT END OF TIME STEP  68 IN STRESS PERIOD    2
  ---------------------------------------------------------------------------

            1           2           3           4           5           6           7           8           9          10
 ........................................................................................................................
   1   10.000       9.945       9.851       9.660       9.283       8.593       7.428       5.631       3.122      9.3356E-03
   2   10.000       9.945       9.851       9.660       9.283       8.593       7.428       5.631       3.122      9.3356E-03
   3   10.000       9.945       9.851       9.660       9.283       8.593       7.428       5.631       3.122      9.3356E-03
   4   10.000       9.945       9.851       9.660       9.283       8.593       7.428       5.631       3.122      9.3356E-03
   5   10.000       9.945       9.851       9.660       9.283       8.593       7.428       5.631       3.122      9.3356E-03
   6   10.000       9.945       9.851       9.660       9.283       8.593       7.428       5.631       3.122      9.3356E-03
   7   10.000       9.945       9.851       9.660       9.283       8.593       7.428       5.631       3.122      9.3356E-03
   8   10.000       9.945       9.851       9.660       9.283       8.593       7.428       5.631       3.122      9.3356E-03
   9   10.000       9.945       9.851       9.660       9.283       8.593       7.428       5.631       3.122      9.3356E-03
  10   10.000       9.945       9.851       9.660       9.283       8.593       7.428       5.631       3.122      9.3356E-03

 HEAD WILL BE SAVED ON UNIT   51 AT END OF TIME STEP   68, STRESS PERIOD    2

 DRAWDOWN WILL BE SAVED ON UNIT   52 AT END OF TIME STEP   68, STRESS PERIOD    2
1
  VOLUMETRIC BUDGET FOR ENTIRE MODEL AT END OF TIME STEP   68, STRESS PERIOD   2
  ------------------------------------------------------------------------------

     CUMULATIVE VOLUMES      L**3       RATES FOR THIS TIME STEP      L**3/T
     ------------------                 ------------------------

           IN:                                      IN:
           ---                                      ---
             STORAGE =      272962.9375               STORAGE =        1575.9828
       CONSTANT HEAD =           0.0000         CONSTANT HEAD =           0.0000
               WELLS =           0.0000                 WELLS =           0.0000
     HEAD DEP BOUNDS =         513.2343       HEAD DEP BOUNDS =          31.3581

            TOTAL IN =      273476.1562              TOTAL IN =        1607.3408

          OUT:                                     OUT:
          ----                                     ----
             STORAGE =           0.0000               STORAGE =           0.0000
       CONSTANT HEAD =           0.0000         CONSTANT HEAD =           0.0000
               WELLS =           0.0000                 WELLS =           0.0000
     HEAD DEP BOUNDS =      273477.5000       HEAD DEP BOUNDS =        1607.4183

           TOTAL OUT =      273477.5000             TOTAL OUT =        1607.4183

            IN - OUT =          -1.3438              IN - OUT =      -7.7515E-02

 PERCENT DISCREPANCY =          -0.00     PERCENT DISCREPANCY =          -0.00






         TIME SUMMARY AT END OF TIME STEP   68 IN STRESS PERIOD    2
                    SECONDS     MINUTES      HOURS       DAYS        YEARS
                    -----------------------------------------------------------
   TIME STEP LENGTH  86400.      1440.0      24.000      1.0000     2.73785E-03
 STRESS PERIOD TIME 5.87520E+06  97920.      1632.0      68.000     0.18617    
         TOTAL TIME 5.96160E+06  99360.      1656.0      69.000     0.18891    
1
 
 SOLVING FOR HEAD 

 OUTPUT CONTROL FOR STRESS PERIOD    2   TIME STEP   69
    SAVE HEAD FOR ALL LAYERS
    SAVE DRAWDOWN FOR ALL LAYERS
    SAVE BUDGET
    PRINT HEAD FOR ALL LAYERS
    PRINT BUDGET
 UBDSV1 SAVING "         STORAGE" ON UNIT  53 AT TIME STEP 69, STRESS PERIOD   2
 UBDSV2 SAVING "   CONSTANT HEAD" ON UNIT  53 AT TIME STEP 69, STRESS PERIOD   2
 UBDSV1 SAVING "FLOW RIGHT FACE " ON UNIT  53 AT TIME STEP 69, STRESS PERIOD   2
 UBDSV1 SAVING "FLOW FRONT FACE " ON UNIT  53 AT TIME STEP 69, STRESS PERIOD   2
 UBDSV1 SAVING "FLOW LOWER FACE " ON UNIT  53 AT TIME STEP 69, STRESS PERIOD   2
1
              HEAD IN LAYER   1 AT END OF TIME STEP  69 IN STRESS PERIOD    2
  ---------------------------------------------------------------------------

            1           2           3           4           5           6           7           8           9          10
 ........................................................................................................................
   1   10.000       9.948       9.857       9.672       9.305       8.627       7.473       5.684       3.170      4.7276E-03
   2   10.000       9.948       9.857       9.672       9.305       8.627       7.473       5.684       3.170      4.7276E-03
   3   10.000       9.948       9.857       9.672       9.305       8.627       7.473       5.684       3.170      4.7276E-03
   4   10.000       9.948       9.857       9.672       9.305       8.627       7.473       5.684       3.170      4.7276E-03
   5   10.000       9.948       9.857       9.672       9.305       8.627       7.473       5.684       3.170      4.7276E-03
   6   10.000       9.948       9.857       9.672       9.305       8.627       7.473       5.684       3.170      4.7276E-03
   7   10.000       9.948       9.857       9.672       9.305       8.627       7.473       5.684       3.170      4.7276E-03
   8   10.000       9.948       9.857       9.672       9.305       8.627       7.473       5.684       3.170      4.7276E-03
   9   10.000       9.948       9.857       9.672       9.305       8.627       7.473       5.684       3.170      4.7276E-03
  10   10.000       9.948       9.857       9.672       9.305       8.627       7.473       5.684       3.170      4.7276E-03
1
              HEAD IN LAYER   2 AT END OF TIME STEP  69 IN STRESS PERIOD    2
  ---------------------------------------------------------------------------

            1           2           3           4           5           6           7           8           9          10
 ........................................................................................................................
   1   10.000       9.945       9.851       9.661       9.286       8.598       7.436       5.645       3.140      8.6788E-03
   2   10.000       9.945       9.851       9.661       9.286       8.598       7.436       5.645       3.140      8.6788E-03
   3   10.000       9.945       9.851       9.661       9.286       8.598       7.436       5.645       3.140      8.6788E-03
   4   10.000       9.945       9.851       9.661       9.286       8.598       7.436       5.645       3.140      8.6788E-03
   5   10.000       9.945       9.851       9.661       9.286       8.598       7.436       5.645       3.140      8.6788E-03
   6   10.000       9.945       9.851       9.661       9.286       8.598       7.436       5.645       3.140      8.6788E-03
   7   10.000       9.945       9.851       9.661       9.286       8.598       7.436       5.645       3.140      8.6788E-03
   8   10.000       9.945       9.851       9.661       9.286       8.598       7.436       5.645       3.140      8.6788E-03
   9   10.000       9.945       9.851       9.661       9.286       8.598       7.436       5.645       3.140      8.6788E-03
  10   10.000       9.945       9.851       9.661       9.286       8.598       7.436       5.645       3.140      8.6788E-03
1
              HEAD IN LAYER   3 AT END OF TIME STEP  69 IN STRESS PERIOD    2
  ---------------------------------------------------------------------------

            1           2           3           4           5           6           7           8           9          10
 ........................................................................................................................
   1   10.000       9.944       9.847       9.653       9.272       8.578       7.410       5.614       3.114      9.2427E-03
   2   10.000       9.944       9.847       9.653       9.272       8.578       7.410       5.614       3.114      9.2427E-03
   3   10.000       9.944       9.847       9.653       9.272       8.578       7.410       5.614       3.114      9.2427E-03
   4   10.000       9.944       9.847       9.653       9.272       8.578       7.410       5.614       3.114      9.2427E-03
   5   10.000       9.944       9.847       9.653       9.272       8.578       7.410       5.614       3.114      9.2427E-03
   6   10.000       9.944       9.847       9.653       9.272       8.578       7.410       5.614       3.114      9.2427E-03
   7   10.000       9.944       9.847       9.653       9.272       8.578       7.410       5.614       3.114      9.2427E-03
   8   10.000       9.944       9.847       9.653       9.272       8.578       7.410       5.614       3.114      9.2427E-03
   9   10.000       9.944       9.847       9.653       9.272       8.578       7.410       5.614       3.114      9.2427E-03
  10   10.000       9.944       9.847       9.653       9.272       8.578       7.410       5.614       3.114      9.2427E-03
1
              HEAD IN LAYER   4 AT END OF TIME STEP  69 IN STRESS PERIOD    2
  ---------------------------------------------------------------------------

            1           2           3           4           5           6           7           8           9          10
 ........................................................................................................................
   1   10.000       9.943       9.845       9.649       9.266       8.568       7.396       5.599       3.101      9.2715E-03
   2   10.000       9.943       9.845       9.649       9.266       8.568       7.396       5.599       3.101      9.2715E-03
   3   10.000       9.943       9.845       9.649       9.266       8.568       7.396       5.599       3.101      9.2715E-03
   4   10.000       9.943       9.845       9.649       9.266       8.568       7.396       5.599       3.101      9.2715E-03
   5   10.000       9.943       9.845       9.649       9.266       8.568       7.396       5.599       3.101      9.2715E-03
   6   10.000       9.943       9.845       9.649       9.266       8.568       7.396       5.599       3.101      9.2715E-03
   7   10.000       9.943       9.845       9.649       9.266       8.568       7.396       5.599       3.101      9.2715E-03
   8   10.000       9.943       9.845       9.649       9.266       8.568       7.396       5.599       3.101      9.2715E-03
   9   10.000       9.943       9.845       9.649       9.266       8.568       7.396       5.599       3.101      9.2715E-03
  10   10.000       9.943       9.845       9.649       9.266       8.568       7.396       5.599       3.101      9.2715E-03

 HEAD WILL BE SAVED ON UNIT   51 AT END OF TIME STEP   69, STRESS PERIOD    2

 DRAWDOWN WILL BE SAVED ON UNIT   52 AT END OF TIME STEP   69, STRESS PERIOD    2
1
  VOLUMETRIC BUDGET FOR ENTIRE MODEL AT END OF TIME STEP   69, STRESS PERIOD   2
  ------------------------------------------------------------------------------

     CUMULATIVE VOLUMES      L**3       RATES FOR THIS TIME STEP      L**3/T
     ------------------                 ------------------------

           IN:                                      IN:
           ---                                      ---
             STORAGE =      274526.1562               STORAGE =        1563.2231
       CONSTANT HEAD =           0.0000         CONSTANT HEAD =           0.0000
               WELLS =           0.0000                 WELLS =           0.0000
     HEAD DEP BOUNDS =         546.0947       HEAD DEP BOUNDS =          32.8605

            TOTAL IN =      275072.2500              TOTAL IN =        1596.0836

          OUT:                                     OUT:
          ----                                     ----
             STORAGE =           0.0000               STORAGE =           0.0000
       CONSTANT HEAD =           0.0000         CONSTANT HEAD =           0.0000
               WELLS =           0.0000                 WELLS =           0.0000
     HEAD DEP BOUNDS =      275073.5312       HEAD DEP BOUNDS =        1596.0297

           TOTAL OUT =      275073.5312             TOTAL OUT =        1596.0297

            IN - OUT =          -1.2812              IN - OUT =       5.3955E-02

 PERCENT DISCREPANCY =          -0.00     PERCENT DISCREPANCY =           0.00






         TIME SUMMARY AT END OF TIME STEP   69 IN STRESS PERIOD    2
                    SECONDS     MINUTES      HOURS       DAYS        YEARS
                    -----------------------------------------------------------
   TIME STEP LENGTH  86400.      1440.0      24.000      1.0000     2.73785E-03
 STRESS PERIOD TIME 5.96160E+06  99360.      1656.0      69.000     0.18891    
         TOTAL TIME 6.04800E+06 1.00800E+05  1680.0      70.000     0.19165    
1
 
 SOLVING FOR HEAD 

 OUTPUT CONTROL FOR STRESS PERIOD    2   TIME STEP   70
    SAVE HEAD FOR ALL LAYERS
    SAVE DRAWDOWN FOR ALL LAYERS
    SAVE BUDGET
    PRINT HEAD FOR ALL LAYERS
    PRINT BUDGET
 UBDSV1 SAVING "         STORAGE" ON UNIT  53 AT TIME STEP 70, STRESS PERIOD   2
 UBDSV2 SAVING "   CONSTANT HEAD" ON UNIT  53 AT TIME STEP 70, STRESS PERIOD   2
 UBDSV1 SAVING "FLOW RIGHT FACE " ON UNIT  53 AT TIME STEP 70, STRESS PERIOD   2
 UBDSV1 SAVING "FLOW FRONT FACE " ON UNIT  53 AT TIME STEP 70, STRESS PERIOD   2
 UBDSV1 SAVING "FLOW LOWER FACE " ON UNIT  53 AT TIME STEP 70, STRESS PERIOD   2
1
              HEAD IN LAYER   1 AT END OF TIME STEP  70 IN STRESS PERIOD    2
  ---------------------------------------------------------------------------

            1           2           3           4           5           6           7           8           9          10
 ........................................................................................................................
   1   10.000       9.946       9.852       9.662       9.288       8.601       7.441       5.651       3.148      4.6909E-03
   2   10.000       9.946       9.852       9.662       9.288       8.601       7.441       5.651       3.148      4.6909E-03
   3   10.000       9.946       9.852       9.662       9.288       8.601       7.441       5.651       3.148      4.6909E-03
   4   10.000       9.946       9.852       9.662       9.288       8.601       7.441       5.651       3.148      4.6909E-03
   5   10.000       9.946       9.852       9.662       9.288       8.601       7.441       5.651       3.148      4.6909E-03
   6   10.000       9.946       9.852       9.662       9.288       8.601       7.441       5.651       3.148      4.6909E-03
   7   10.000       9.946       9.852       9.662       9.288       8.601       7.441       5.651       3.148      4.6909E-03
   8   10.000       9.946       9.852       9.662       9.288       8.601       7.441       5.651       3.148      4.6909E-03
   9   10.000       9.946       9.852       9.662       9.288       8.601       7.441       5.651       3.148      4.6909E-03
  10   10.000       9.946       9.852       9.662       9.288       8.601       7.441       5.651       3.148      4.6909E-03
1
              HEAD IN LAYER   2 AT END OF TIME STEP  70 IN STRESS PERIOD    2
  ---------------------------------------------------------------------------

            1           2           3           4           5           6           7           8           9          10
 ........................................................................................................................
   1   10.000       9.943       9.845       9.650       9.268       8.572       7.405       5.613       3.118      8.6183E-03
   2   10.000       9.943       9.845       9.650       9.268       8.572       7.405       5.613       3.118      8.6183E-03
   3   10.000       9.943       9.845       9.650       9.268       8.572       7.405       5.613       3.118      8.6183E-03
   4   10.000       9.943       9.845       9.650       9.268       8.572       7.405       5.613       3.118      8.6183E-03
   5   10.000       9.943       9.845       9.650       9.268       8.572       7.405       5.613       3.118      8.6183E-03
   6   10.000       9.943       9.845       9.650       9.268       8.572       7.405       5.613       3.118      8.6183E-03
   7   10.000       9.943       9.845       9.650       9.268       8.572       7.405       5.613       3.118      8.6183E-03
   8   10.000       9.943       9.845       9.650       9.268       8.572       7.405       5.613       3.118      8.6183E-03
   9   10.000       9.943       9.845       9.650       9.268       8.572       7.405       5.613       3.118      8.6183E-03
  10   10.000       9.943       9.845       9.650       9.268       8.572       7.405       5.613       3.118      8.6183E-03
1
              HEAD IN LAYER   3 AT END OF TIME STEP  70 IN STRESS PERIOD    2
  ---------------------------------------------------------------------------

            1           2           3           4           5           6           7           8           9          10
 ........................................................................................................................
   1   10.000       9.941       9.841       9.642       9.255       8.552       7.378       5.583       3.093      9.1795E-03
   2   10.000       9.941       9.841       9.642       9.255       8.552       7.378       5.583       3.093      9.1795E-03
   3   10.000       9.941       9.841       9.642       9.255       8.552       7.378       5.583       3.093      9.1795E-03
   4   10.000       9.941       9.841       9.642       9.255       8.552       7.378       5.583       3.093      9.1795E-03
   5   10.000       9.941       9.841       9.642       9.255       8.552       7.378       5.583       3.093      9.1795E-03
   6   10.000       9.941       9.841       9.642       9.255       8.552       7.378       5.583       3.093      9.1795E-03
   7   10.000       9.941       9.841       9.642       9.255       8.552       7.378       5.583       3.093      9.1795E-03
   8   10.000       9.941       9.841       9.642       9.255       8.552       7.378       5.583       3.093      9.1795E-03
   9   10.000       9.941       9.841       9.642       9.255       8.552       7.378       5.583       3.093      9.1795E-03
  10   10.000       9.941       9.841       9.642       9.255       8.552       7.378       5.583       3.093      9.1795E-03
1
              HEAD IN LAYER   4 AT END OF TIME STEP  70 IN STRESS PERIOD    2
  ---------------------------------------------------------------------------

            1           2           3           4           5           6           7           8           9          10
 ........................................................................................................................
   1   10.000       9.940       9.839       9.638       9.248       8.542       7.365       5.568       3.080      9.2086E-03
   2   10.000       9.940       9.839       9.638       9.248       8.542       7.365       5.568       3.080      9.2086E-03
   3   10.000       9.940       9.839       9.638       9.248       8.542       7.365       5.568       3.080      9.2086E-03
   4   10.000       9.940       9.839       9.638       9.248       8.542       7.365       5.568       3.080      9.2086E-03
   5   10.000       9.940       9.839       9.638       9.248       8.542       7.365       5.568       3.080      9.2086E-03
   6   10.000       9.940       9.839       9.638       9.248       8.542       7.365       5.568       3.080      9.2086E-03
   7   10.000       9.940       9.839       9.638       9.248       8.542       7.365       5.568       3.080      9.2086E-03
   8   10.000       9.940       9.839       9.638       9.248       8.542       7.365       5.568       3.080      9.2086E-03
   9   10.000       9.940       9.839       9.638       9.248       8.542       7.365       5.568       3.080      9.2086E-03
  10   10.000       9.940       9.839       9.638       9.248       8.542       7.365       5.568       3.080      9.2086E-03

 HEAD WILL BE SAVED ON UNIT   51 AT END OF TIME STEP   70, STRESS PERIOD    2

 DRAWDOWN WILL BE SAVED ON UNIT   52 AT END OF TIME STEP   70, STRESS PERIOD    2
1
  VOLUMETRIC BUDGET FOR ENTIRE MODEL AT END OF TIME STEP   70, STRESS PERIOD   2
  ------------------------------------------------------------------------------

     CUMULATIVE VOLUMES      L**3       RATES FOR THIS TIME STEP      L**3/T
     ------------------                 ------------------------

           IN:                                      IN:
           ---                                      ---
             STORAGE =      276076.7812               STORAGE =        1550.6127
       CONSTANT HEAD =           0.0000         CONSTANT HEAD =           0.0000
               WELLS =           0.0000                 WELLS =           0.0000
     HEAD DEP BOUNDS =         580.4478       HEAD DEP BOUNDS =          34.3530

            TOTAL IN =      276657.2188              TOTAL IN =        1584.9657

          OUT:                                     OUT:
          ----                                     ----
             STORAGE =           0.0000               STORAGE =           0.0000
       CONSTANT HEAD =           0.0000         CONSTANT HEAD =           0.0000
               WELLS =           0.0000                 WELLS =           0.0000
     HEAD DEP BOUNDS =      276658.4062       HEAD DEP BOUNDS =        1584.8679

           TOTAL OUT =      276658.4062             TOTAL OUT =        1584.8679

            IN - OUT =          -1.1875              IN - OUT =       9.7778E-02

 PERCENT DISCREPANCY =          -0.00     PERCENT DISCREPANCY =           0.01






         TIME SUMMARY AT END OF TIME STEP   70 IN STRESS PERIOD    2
                    SECONDS     MINUTES      HOURS       DAYS        YEARS
                    -----------------------------------------------------------
   TIME STEP LENGTH  86400.      1440.0      24.000      1.0000     2.73785E-03
 STRESS PERIOD TIME 6.04800E+06 1.00800E+05  1680.0      70.000     0.19165    
         TOTAL TIME 6.13440E+06 1.02240E+05  1704.0      71.000     0.19439    
1
 
 SOLVING FOR HEAD 

 OUTPUT CONTROL FOR STRESS PERIOD    2   TIME STEP   71
    SAVE HEAD FOR ALL LAYERS
    SAVE DRAWDOWN FOR ALL LAYERS
    SAVE BUDGET
    PRINT HEAD FOR ALL LAYERS
    PRINT BUDGET
 UBDSV1 SAVING "         STORAGE" ON UNIT  53 AT TIME STEP 71, STRESS PERIOD   2
 UBDSV2 SAVING "   CONSTANT HEAD" ON UNIT  53 AT TIME STEP 71, STRESS PERIOD   2
 UBDSV1 SAVING "FLOW RIGHT FACE " ON UNIT  53 AT TIME STEP 71, STRESS PERIOD   2
 UBDSV1 SAVING "FLOW FRONT FACE " ON UNIT  53 AT TIME STEP 71, STRESS PERIOD   2
 UBDSV1 SAVING "FLOW LOWER FACE " ON UNIT  53 AT TIME STEP 71, STRESS PERIOD   2
1
              HEAD IN LAYER   1 AT END OF TIME STEP  71 IN STRESS PERIOD    2
  ---------------------------------------------------------------------------

            1           2           3           4           5           6           7           8           9          10
 ........................................................................................................................
   1   10.000       9.943       9.846       9.651       9.270       8.576       7.410       5.619       3.126      4.6552E-03
   2   10.000       9.943       9.846       9.651       9.270       8.576       7.410       5.619       3.126      4.6552E-03
   3   10.000       9.943       9.846       9.651       9.270       8.576       7.410       5.619       3.126      4.6552E-03
   4   10.000       9.943       9.846       9.651       9.270       8.576       7.410       5.619       3.126      4.6552E-03
   5   10.000       9.943       9.846       9.651       9.270       8.576       7.410       5.619       3.126      4.6552E-03
   6   10.000       9.943       9.846       9.651       9.270       8.576       7.410       5.619       3.126      4.6552E-03
   7   10.000       9.943       9.846       9.651       9.270       8.576       7.410       5.619       3.126      4.6552E-03
   8   10.000       9.943       9.846       9.651       9.270       8.576       7.410       5.619       3.126      4.6552E-03
   9   10.000       9.943       9.846       9.651       9.270       8.576       7.410       5.619       3.126      4.6552E-03
  10   10.000       9.943       9.846       9.651       9.270       8.576       7.410       5.619       3.126      4.6552E-03
1
              HEAD IN LAYER   2 AT END OF TIME STEP  71 IN STRESS PERIOD    2
  ---------------------------------------------------------------------------

            1           2           3           4           5           6           7           8           9          10
 ........................................................................................................................
   1   10.000       9.941       9.840       9.639       9.251       8.547       7.374       5.581       3.097      8.5590E-03
   2   10.000       9.941       9.840       9.639       9.251       8.547       7.374       5.581       3.097      8.5590E-03
   3   10.000       9.941       9.840       9.639       9.251       8.547       7.374       5.581       3.097      8.5590E-03
   4   10.000       9.941       9.840       9.639       9.251       8.547       7.374       5.581       3.097      8.5590E-03
   5   10.000       9.941       9.840       9.639       9.251       8.547       7.374       5.581       3.097      8.5590E-03
   6   10.000       9.941       9.840       9.639       9.251       8.547       7.374       5.581       3.097      8.5590E-03
   7   10.000       9.941       9.840       9.639       9.251       8.547       7.374       5.581       3.097      8.5590E-03
   8   10.000       9.941       9.840       9.639       9.251       8.547       7.374       5.581       3.097      8.5590E-03
   9   10.000       9.941       9.840       9.639       9.251       8.547       7.374       5.581       3.097      8.5590E-03
  10   10.000       9.941       9.840       9.639       9.251       8.547       7.374       5.581       3.097      8.5590E-03
1
              HEAD IN LAYER   3 AT END OF TIME STEP  71 IN STRESS PERIOD    2
  ---------------------------------------------------------------------------

            1           2           3           4           5           6           7           8           9          10
 ........................................................................................................................
   1   10.000       9.939       9.835       9.631       9.237       8.527       7.347       5.552       3.072      9.1177E-03
   2   10.000       9.939       9.835       9.631       9.237       8.527       7.347       5.552       3.072      9.1177E-03
   3   10.000       9.939       9.835       9.631       9.237       8.527       7.347       5.552       3.072      9.1177E-03
   4   10.000       9.939       9.835       9.631       9.237       8.527       7.347       5.552       3.072      9.1177E-03
   5   10.000       9.939       9.835       9.631       9.237       8.527       7.347       5.552       3.072      9.1177E-03
   6   10.000       9.939       9.835       9.631       9.237       8.527       7.347       5.552       3.072      9.1177E-03
   7   10.000       9.939       9.835       9.631       9.237       8.527       7.347       5.552       3.072      9.1177E-03
   8   10.000       9.939       9.835       9.631       9.237       8.527       7.347       5.552       3.072      9.1177E-03
   9   10.000       9.939       9.835       9.631       9.237       8.527       7.347       5.552       3.072      9.1177E-03
  10   10.000       9.939       9.835       9.631       9.237       8.527       7.347       5.552       3.072      9.1177E-03
1
              HEAD IN LAYER   4 AT END OF TIME STEP  71 IN STRESS PERIOD    2
  ---------------------------------------------------------------------------

            1           2           3           4           5           6           7           8           9          10
 ........................................................................................................................
   1   10.000       9.938       9.833       9.627       9.230       8.517       7.334       5.537       3.059      9.1470E-03
   2   10.000       9.938       9.833       9.627       9.230       8.517       7.334       5.537       3.059      9.1470E-03
   3   10.000       9.938       9.833       9.627       9.230       8.517       7.334       5.537       3.059      9.1470E-03
   4   10.000       9.938       9.833       9.627       9.230       8.517       7.334       5.537       3.059      9.1470E-03
   5   10.000       9.938       9.833       9.627       9.230       8.517       7.334       5.537       3.059      9.1470E-03
   6   10.000       9.938       9.833       9.627       9.230       8.517       7.334       5.537       3.059      9.1470E-03
   7   10.000       9.938       9.833       9.627       9.230       8.517       7.334       5.537       3.059      9.1470E-03
   8   10.000       9.938       9.833       9.627       9.230       8.517       7.334       5.537       3.059      9.1470E-03
   9   10.000       9.938       9.833       9.627       9.230       8.517       7.334       5.537       3.059      9.1470E-03
  10   10.000       9.938       9.833       9.627       9.230       8.517       7.334       5.537       3.059      9.1470E-03

 HEAD WILL BE SAVED ON UNIT   51 AT END OF TIME STEP   71, STRESS PERIOD    2

 DRAWDOWN WILL BE SAVED ON UNIT   52 AT END OF TIME STEP   71, STRESS PERIOD    2
1
  VOLUMETRIC BUDGET FOR ENTIRE MODEL AT END OF TIME STEP   71, STRESS PERIOD   2
  ------------------------------------------------------------------------------

     CUMULATIVE VOLUMES      L**3       RATES FOR THIS TIME STEP      L**3/T
     ------------------                 ------------------------

           IN:                                      IN:
           ---                                      ---
             STORAGE =      277614.9688               STORAGE =        1538.1932
       CONSTANT HEAD =           0.0000         CONSTANT HEAD =           0.0000
               WELLS =           0.0000                 WELLS =           0.0000
     HEAD DEP BOUNDS =         616.2160       HEAD DEP BOUNDS =          35.7683

            TOTAL IN =      278231.1875              TOTAL IN =        1573.9615

          OUT:                                     OUT:
          ----                                     ----
             STORAGE =           0.0000               STORAGE =           0.0000
       CONSTANT HEAD =           0.0000         CONSTANT HEAD =           0.0000
               WELLS =           0.0000                 WELLS =           0.0000
     HEAD DEP BOUNDS =      278232.3438       HEAD DEP BOUNDS =        1573.9440

           TOTAL OUT =      278232.3438             TOTAL OUT =        1573.9440

            IN - OUT =          -1.1562              IN - OUT =       1.7578E-02

 PERCENT DISCREPANCY =          -0.00     PERCENT DISCREPANCY =           0.00






         TIME SUMMARY AT END OF TIME STEP   71 IN STRESS PERIOD    2
                    SECONDS     MINUTES      HOURS       DAYS        YEARS
                    -----------------------------------------------------------
   TIME STEP LENGTH  86400.      1440.0      24.000      1.0000     2.73785E-03
 STRESS PERIOD TIME 6.13440E+06 1.02240E+05  1704.0      71.000     0.19439    
         TOTAL TIME 6.22080E+06 1.03680E+05  1728.0      72.000     0.19713    
1
 
 SOLVING FOR HEAD 

 OUTPUT CONTROL FOR STRESS PERIOD    2   TIME STEP   72
    SAVE HEAD FOR ALL LAYERS
    SAVE DRAWDOWN FOR ALL LAYERS
    SAVE BUDGET
    PRINT HEAD FOR ALL LAYERS
    PRINT BUDGET
 UBDSV1 SAVING "         STORAGE" ON UNIT  53 AT TIME STEP 72, STRESS PERIOD   2
 UBDSV2 SAVING "   CONSTANT HEAD" ON UNIT  53 AT TIME STEP 72, STRESS PERIOD   2
 UBDSV1 SAVING "FLOW RIGHT FACE " ON UNIT  53 AT TIME STEP 72, STRESS PERIOD   2
 UBDSV1 SAVING "FLOW FRONT FACE " ON UNIT  53 AT TIME STEP 72, STRESS PERIOD   2
 UBDSV1 SAVING "FLOW LOWER FACE " ON UNIT  53 AT TIME STEP 72, STRESS PERIOD   2
1
              HEAD IN LAYER   1 AT END OF TIME STEP  72 IN STRESS PERIOD    2
  ---------------------------------------------------------------------------

            1           2           3           4           5           6           7           8           9          10
 ........................................................................................................................
   1   10.000       9.941       9.840       9.640       9.253       8.550       7.378       5.588       3.105      4.6200E-03
   2   10.000       9.941       9.840       9.640       9.253       8.550       7.378       5.588       3.105      4.6200E-03
   3   10.000       9.941       9.840       9.640       9.253       8.550       7.378       5.588       3.105      4.6200E-03
   4   10.000       9.941       9.840       9.640       9.253       8.550       7.378       5.588       3.105      4.6200E-03
   5   10.000       9.941       9.840       9.640       9.253       8.550       7.378       5.588       3.105      4.6200E-03
   6   10.000       9.941       9.840       9.640       9.253       8.550       7.378       5.588       3.105      4.6200E-03
   7   10.000       9.941       9.840       9.640       9.253       8.550       7.378       5.588       3.105      4.6200E-03
   8   10.000       9.941       9.840       9.640       9.253       8.550       7.378       5.588       3.105      4.6200E-03
   9   10.000       9.941       9.840       9.640       9.253       8.550       7.378       5.588       3.105      4.6200E-03
  10   10.000       9.941       9.840       9.640       9.253       8.550       7.378       5.588       3.105      4.6200E-03
1
              HEAD IN LAYER   2 AT END OF TIME STEP  72 IN STRESS PERIOD    2
  ---------------------------------------------------------------------------

            1           2           3           4           5           6           7           8           9          10
 ........................................................................................................................
   1   10.000       9.938       9.834       9.628       9.233       8.522       7.343       5.550       3.076      8.5009E-03
   2   10.000       9.938       9.834       9.628       9.233       8.522       7.343       5.550       3.076      8.5009E-03
   3   10.000       9.938       9.834       9.628       9.233       8.522       7.343       5.550       3.076      8.5009E-03
   4   10.000       9.938       9.834       9.628       9.233       8.522       7.343       5.550       3.076      8.5009E-03
   5   10.000       9.938       9.834       9.628       9.233       8.522       7.343       5.550       3.076      8.5009E-03
   6   10.000       9.938       9.834       9.628       9.233       8.522       7.343       5.550       3.076      8.5009E-03
   7   10.000       9.938       9.834       9.628       9.233       8.522       7.343       5.550       3.076      8.5009E-03
   8   10.000       9.938       9.834       9.628       9.233       8.522       7.343       5.550       3.076      8.5009E-03
   9   10.000       9.938       9.834       9.628       9.233       8.522       7.343       5.550       3.076      8.5009E-03
  10   10.000       9.938       9.834       9.628       9.233       8.522       7.343       5.550       3.076      8.5009E-03
1
              HEAD IN LAYER   3 AT END OF TIME STEP  72 IN STRESS PERIOD    2
  ---------------------------------------------------------------------------

            1           2           3           4           5           6           7           8           9          10
 ........................................................................................................................
   1   10.000       9.936       9.829       9.620       9.219       8.502       7.317       5.522       3.051      9.0571E-03
   2   10.000       9.936       9.829       9.620       9.219       8.502       7.317       5.522       3.051      9.0571E-03
   3   10.000       9.936       9.829       9.620       9.219       8.502       7.317       5.522       3.051      9.0571E-03
   4   10.000       9.936       9.829       9.620       9.219       8.502       7.317       5.522       3.051      9.0571E-03
   5   10.000       9.936       9.829       9.620       9.219       8.502       7.317       5.522       3.051      9.0571E-03
   6   10.000       9.936       9.829       9.620       9.219       8.502       7.317       5.522       3.051      9.0571E-03
   7   10.000       9.936       9.829       9.620       9.219       8.502       7.317       5.522       3.051      9.0571E-03
   8   10.000       9.936       9.829       9.620       9.219       8.502       7.317       5.522       3.051      9.0571E-03
   9   10.000       9.936       9.829       9.620       9.219       8.502       7.317       5.522       3.051      9.0571E-03
  10   10.000       9.936       9.829       9.620       9.219       8.502       7.317       5.522       3.051      9.0571E-03
1
              HEAD IN LAYER   4 AT END OF TIME STEP  72 IN STRESS PERIOD    2
  ---------------------------------------------------------------------------

            1           2           3           4           5           6           7           8           9          10
 ........................................................................................................................
   1   10.000       9.935       9.827       9.616       9.213       8.492       7.304       5.507       3.039      9.0866E-03
   2   10.000       9.935       9.827       9.616       9.213       8.492       7.304       5.507       3.039      9.0866E-03
   3   10.000       9.935       9.827       9.616       9.213       8.492       7.304       5.507       3.039      9.0866E-03
   4   10.000       9.935       9.827       9.616       9.213       8.492       7.304       5.507       3.039      9.0866E-03
   5   10.000       9.935       9.827       9.616       9.213       8.492       7.304       5.507       3.039      9.0866E-03
   6   10.000       9.935       9.827       9.616       9.213       8.492       7.304       5.507       3.039      9.0866E-03
   7   10.000       9.935       9.827       9.616       9.213       8.492       7.304       5.507       3.039      9.0866E-03
   8   10.000       9.935       9.827       9.616       9.213       8.492       7.304       5.507       3.039      9.0866E-03
   9   10.000       9.935       9.827       9.616       9.213       8.492       7.304       5.507       3.039      9.0866E-03
  10   10.000       9.935       9.827       9.616       9.213       8.492       7.304       5.507       3.039      9.0866E-03

 HEAD WILL BE SAVED ON UNIT   51 AT END OF TIME STEP   72, STRESS PERIOD    2

 DRAWDOWN WILL BE SAVED ON UNIT   52 AT END OF TIME STEP   72, STRESS PERIOD    2
1
  VOLUMETRIC BUDGET FOR ENTIRE MODEL AT END OF TIME STEP   72, STRESS PERIOD   2
  ------------------------------------------------------------------------------

     CUMULATIVE VOLUMES      L**3       RATES FOR THIS TIME STEP      L**3/T
     ------------------                 ------------------------

           IN:                                      IN:
           ---                                      ---
             STORAGE =      279140.9688               STORAGE =        1526.0033
       CONSTANT HEAD =           0.0000         CONSTANT HEAD =           0.0000
               WELLS =           0.0000                 WELLS =           0.0000
     HEAD DEP BOUNDS =         653.4955       HEAD DEP BOUNDS =          37.2796

            TOTAL IN =      279794.4688              TOTAL IN =        1563.2828

          OUT:                                     OUT:
          ----                                     ----
             STORAGE =           0.0000               STORAGE =           0.0000
       CONSTANT HEAD =           0.0000         CONSTANT HEAD =           0.0000
               WELLS =           0.0000                 WELLS =           0.0000
     HEAD DEP BOUNDS =      279795.5625       HEAD DEP BOUNDS =        1563.2325

           TOTAL OUT =      279795.5625             TOTAL OUT =        1563.2325

            IN - OUT =          -1.0938              IN - OUT =       5.0293E-02

 PERCENT DISCREPANCY =          -0.00     PERCENT DISCREPANCY =           0.00






         TIME SUMMARY AT END OF TIME STEP   72 IN STRESS PERIOD    2
                    SECONDS     MINUTES      HOURS       DAYS        YEARS
                    -----------------------------------------------------------
   TIME STEP LENGTH  86400.      1440.0      24.000      1.0000     2.73785E-03
 STRESS PERIOD TIME 6.22080E+06 1.03680E+05  1728.0      72.000     0.19713    
         TOTAL TIME 6.30720E+06 1.05120E+05  1752.0      73.000     0.19986    
1
 
 SOLVING FOR HEAD 

 OUTPUT CONTROL FOR STRESS PERIOD    2   TIME STEP   73
    SAVE HEAD FOR ALL LAYERS
    SAVE DRAWDOWN FOR ALL LAYERS
    SAVE BUDGET
    PRINT HEAD FOR ALL LAYERS
    PRINT BUDGET
 UBDSV1 SAVING "         STORAGE" ON UNIT  53 AT TIME STEP 73, STRESS PERIOD   2
 UBDSV2 SAVING "   CONSTANT HEAD" ON UNIT  53 AT TIME STEP 73, STRESS PERIOD   2
 UBDSV1 SAVING "FLOW RIGHT FACE " ON UNIT  53 AT TIME STEP 73, STRESS PERIOD   2
 UBDSV1 SAVING "FLOW FRONT FACE " ON UNIT  53 AT TIME STEP 73, STRESS PERIOD   2
 UBDSV1 SAVING "FLOW LOWER FACE " ON UNIT  53 AT TIME STEP 73, STRESS PERIOD   2
1
              HEAD IN LAYER   1 AT END OF TIME STEP  73 IN STRESS PERIOD    2
  ---------------------------------------------------------------------------

            1           2           3           4           5           6           7           8           9          10
 ........................................................................................................................
   1   10.000       9.938       9.834       9.629       9.235       8.525       7.347       5.557       3.084      4.5856E-03
   2   10.000       9.938       9.834       9.629       9.235       8.525       7.347       5.557       3.084      4.5856E-03
   3   10.000       9.938       9.834       9.629       9.235       8.525       7.347       5.557       3.084      4.5856E-03
   4   10.000       9.938       9.834       9.629       9.235       8.525       7.347       5.557       3.084      4.5856E-03
   5   10.000       9.938       9.834       9.629       9.235       8.525       7.347       5.557       3.084      4.5856E-03
   6   10.000       9.938       9.834       9.629       9.235       8.525       7.347       5.557       3.084      4.5856E-03
   7   10.000       9.938       9.834       9.629       9.235       8.525       7.347       5.557       3.084      4.5856E-03
   8   10.000       9.938       9.834       9.629       9.235       8.525       7.347       5.557       3.084      4.5856E-03
   9   10.000       9.938       9.834       9.629       9.235       8.525       7.347       5.557       3.084      4.5856E-03
  10   10.000       9.938       9.834       9.629       9.235       8.525       7.347       5.557       3.084      4.5856E-03
1
              HEAD IN LAYER   2 AT END OF TIME STEP  73 IN STRESS PERIOD    2
  ---------------------------------------------------------------------------

            1           2           3           4           5           6           7           8           9          10
 ........................................................................................................................
   1   10.000       9.936       9.828       9.617       9.215       8.497       7.312       5.520       3.056      8.4440E-03
   2   10.000       9.936       9.828       9.617       9.215       8.497       7.312       5.520       3.056      8.4440E-03
   3   10.000       9.936       9.828       9.617       9.215       8.497       7.312       5.520       3.056      8.4440E-03
   4   10.000       9.936       9.828       9.617       9.215       8.497       7.312       5.520       3.056      8.4440E-03
   5   10.000       9.936       9.828       9.617       9.215       8.497       7.312       5.520       3.056      8.4440E-03
   6   10.000       9.936       9.828       9.617       9.215       8.497       7.312       5.520       3.056      8.4440E-03
   7   10.000       9.936       9.828       9.617       9.215       8.497       7.312       5.520       3.056      8.4440E-03
   8   10.000       9.936       9.828       9.617       9.215       8.497       7.312       5.520       3.056      8.4440E-03
   9   10.000       9.936       9.828       9.617       9.215       8.497       7.312       5.520       3.056      8.4440E-03
  10   10.000       9.936       9.828       9.617       9.215       8.497       7.312       5.520       3.056      8.4440E-03
1
              HEAD IN LAYER   3 AT END OF TIME STEP  73 IN STRESS PERIOD    2
  ---------------------------------------------------------------------------

            1           2           3           4           5           6           7           8           9          10
 ........................................................................................................................
   1   10.000       9.934       9.823       9.609       9.202       8.477       7.286       5.492       3.031      8.9976E-03
   2   10.000       9.934       9.823       9.609       9.202       8.477       7.286       5.492       3.031      8.9976E-03
   3   10.000       9.934       9.823       9.609       9.202       8.477       7.286       5.492       3.031      8.9976E-03
   4   10.000       9.934       9.823       9.609       9.202       8.477       7.286       5.492       3.031      8.9976E-03
   5   10.000       9.934       9.823       9.609       9.202       8.477       7.286       5.492       3.031      8.9976E-03
   6   10.000       9.934       9.823       9.609       9.202       8.477       7.286       5.492       3.031      8.9976E-03
   7   10.000       9.934       9.823       9.609       9.202       8.477       7.286       5.492       3.031      8.9976E-03
   8   10.000       9.934       9.823       9.609       9.202       8.477       7.286       5.492       3.031      8.9976E-03
   9   10.000       9.934       9.823       9.609       9.202       8.477       7.286       5.492       3.031      8.9976E-03
  10   10.000       9.934       9.823       9.609       9.202       8.477       7.286       5.492       3.031      8.9976E-03
1
              HEAD IN LAYER   4 AT END OF TIME STEP  73 IN STRESS PERIOD    2
  ---------------------------------------------------------------------------

            1           2           3           4           5           6           7           8           9          10
 ........................................................................................................................
   1   10.000       9.933       9.821       9.605       9.195       8.467       7.273       5.477       3.019      9.0274E-03
   2   10.000       9.933       9.821       9.605       9.195       8.467       7.273       5.477       3.019      9.0274E-03
   3   10.000       9.933       9.821       9.605       9.195       8.467       7.273       5.477       3.019      9.0274E-03
   4   10.000       9.933       9.821       9.605       9.195       8.467       7.273       5.477       3.019      9.0274E-03
   5   10.000       9.933       9.821       9.605       9.195       8.467       7.273       5.477       3.019      9.0274E-03
   6   10.000       9.933       9.821       9.605       9.195       8.467       7.273       5.477       3.019      9.0274E-03
   7   10.000       9.933       9.821       9.605       9.195       8.467       7.273       5.477       3.019      9.0274E-03
   8   10.000       9.933       9.821       9.605       9.195       8.467       7.273       5.477       3.019      9.0274E-03
   9   10.000       9.933       9.821       9.605       9.195       8.467       7.273       5.477       3.019      9.0274E-03
  10   10.000       9.933       9.821       9.605       9.195       8.467       7.273       5.477       3.019      9.0274E-03

 HEAD WILL BE SAVED ON UNIT   51 AT END OF TIME STEP   73, STRESS PERIOD    2

 DRAWDOWN WILL BE SAVED ON UNIT   52 AT END OF TIME STEP   73, STRESS PERIOD    2
1
  VOLUMETRIC BUDGET FOR ENTIRE MODEL AT END OF TIME STEP   73, STRESS PERIOD   2
  ------------------------------------------------------------------------------

     CUMULATIVE VOLUMES      L**3       RATES FOR THIS TIME STEP      L**3/T
     ------------------                 ------------------------

           IN:                                      IN:
           ---                                      ---
             STORAGE =      280654.9375               STORAGE =        1513.9711
       CONSTANT HEAD =           0.0000         CONSTANT HEAD =           0.0000
               WELLS =           0.0000                 WELLS =           0.0000
     HEAD DEP BOUNDS =         692.3145       HEAD DEP BOUNDS =          38.8190

            TOTAL IN =      281347.2500              TOTAL IN =        1552.7900

          OUT:                                     OUT:
          ----                                     ----
             STORAGE =           0.0000               STORAGE =           0.0000
       CONSTANT HEAD =           0.0000         CONSTANT HEAD =           0.0000
               WELLS =           0.0000                 WELLS =           0.0000
     HEAD DEP BOUNDS =      281348.2812       HEAD DEP BOUNDS =        1552.7277

           TOTAL OUT =      281348.2812             TOTAL OUT =        1552.7277

            IN - OUT =          -1.0312              IN - OUT =       6.2378E-02

 PERCENT DISCREPANCY =          -0.00     PERCENT DISCREPANCY =           0.00






         TIME SUMMARY AT END OF TIME STEP   73 IN STRESS PERIOD    2
                    SECONDS     MINUTES      HOURS       DAYS        YEARS
                    -----------------------------------------------------------
   TIME STEP LENGTH  86400.      1440.0      24.000      1.0000     2.73785E-03
 STRESS PERIOD TIME 6.30720E+06 1.05120E+05  1752.0      73.000     0.19986    
         TOTAL TIME 6.39360E+06 1.06560E+05  1776.0      74.000     0.20260    
1
 
 SOLVING FOR HEAD 

 OUTPUT CONTROL FOR STRESS PERIOD    2   TIME STEP   74
    SAVE HEAD FOR ALL LAYERS
    SAVE DRAWDOWN FOR ALL LAYERS
    SAVE BUDGET
    PRINT HEAD FOR ALL LAYERS
    PRINT BUDGET
 UBDSV1 SAVING "         STORAGE" ON UNIT  53 AT TIME STEP 74, STRESS PERIOD   2
 UBDSV2 SAVING "   CONSTANT HEAD" ON UNIT  53 AT TIME STEP 74, STRESS PERIOD   2
 UBDSV1 SAVING "FLOW RIGHT FACE " ON UNIT  53 AT TIME STEP 74, STRESS PERIOD   2
 UBDSV1 SAVING "FLOW FRONT FACE " ON UNIT  53 AT TIME STEP 74, STRESS PERIOD   2
 UBDSV1 SAVING "FLOW LOWER FACE " ON UNIT  53 AT TIME STEP 74, STRESS PERIOD   2
1
              HEAD IN LAYER   1 AT END OF TIME STEP  74 IN STRESS PERIOD    2
  ---------------------------------------------------------------------------

            1           2           3           4           5           6           7           8           9          10
 ........................................................................................................................
   1   10.000       9.936       9.828       9.619       9.217       8.500       7.317       5.526       3.063      4.5520E-03
   2   10.000       9.936       9.828       9.619       9.217       8.500       7.317       5.526       3.063      4.5520E-03
   3   10.000       9.936       9.828       9.619       9.217       8.500       7.317       5.526       3.063      4.5520E-03
   4   10.000       9.936       9.828       9.619       9.217       8.500       7.317       5.526       3.063      4.5520E-03
   5   10.000       9.936       9.828       9.619       9.217       8.500       7.317       5.526       3.063      4.5520E-03
   6   10.000       9.936       9.828       9.619       9.217       8.500       7.317       5.526       3.063      4.5520E-03
   7   10.000       9.936       9.828       9.619       9.217       8.500       7.317       5.526       3.063      4.5520E-03
   8   10.000       9.936       9.828       9.619       9.217       8.500       7.317       5.526       3.063      4.5520E-03
   9   10.000       9.936       9.828       9.619       9.217       8.500       7.317       5.526       3.063      4.5520E-03
  10   10.000       9.936       9.828       9.619       9.217       8.500       7.317       5.526       3.063      4.5520E-03
1
              HEAD IN LAYER   2 AT END OF TIME STEP  74 IN STRESS PERIOD    2
  ---------------------------------------------------------------------------

            1           2           3           4           5           6           7           8           9          10
 ........................................................................................................................
   1   10.000       9.933       9.822       9.606       9.198       8.472       7.282       5.490       3.036      8.3882E-03
   2   10.000       9.933       9.822       9.606       9.198       8.472       7.282       5.490       3.036      8.3882E-03
   3   10.000       9.933       9.822       9.606       9.198       8.472       7.282       5.490       3.036      8.3882E-03
   4   10.000       9.933       9.822       9.606       9.198       8.472       7.282       5.490       3.036      8.3882E-03
   5   10.000       9.933       9.822       9.606       9.198       8.472       7.282       5.490       3.036      8.3882E-03
   6   10.000       9.933       9.822       9.606       9.198       8.472       7.282       5.490       3.036      8.3882E-03
   7   10.000       9.933       9.822       9.606       9.198       8.472       7.282       5.490       3.036      8.3882E-03
   8   10.000       9.933       9.822       9.606       9.198       8.472       7.282       5.490       3.036      8.3882E-03
   9   10.000       9.933       9.822       9.606       9.198       8.472       7.282       5.490       3.036      8.3882E-03
  10   10.000       9.933       9.822       9.606       9.198       8.472       7.282       5.490       3.036      8.3882E-03
1
              HEAD IN LAYER   3 AT END OF TIME STEP  74 IN STRESS PERIOD    2
  ---------------------------------------------------------------------------

            1           2           3           4           5           6           7           8           9          10
 ........................................................................................................................
   1   10.000       9.931       9.817       9.598       9.184       8.452       7.256       5.462       3.012      8.9393E-03
   2   10.000       9.931       9.817       9.598       9.184       8.452       7.256       5.462       3.012      8.9393E-03
   3   10.000       9.931       9.817       9.598       9.184       8.452       7.256       5.462       3.012      8.9393E-03
   4   10.000       9.931       9.817       9.598       9.184       8.452       7.256       5.462       3.012      8.9393E-03
   5   10.000       9.931       9.817       9.598       9.184       8.452       7.256       5.462       3.012      8.9393E-03
   6   10.000       9.931       9.817       9.598       9.184       8.452       7.256       5.462       3.012      8.9393E-03
   7   10.000       9.931       9.817       9.598       9.184       8.452       7.256       5.462       3.012      8.9393E-03
   8   10.000       9.931       9.817       9.598       9.184       8.452       7.256       5.462       3.012      8.9393E-03
   9   10.000       9.931       9.817       9.598       9.184       8.452       7.256       5.462       3.012      8.9393E-03
  10   10.000       9.931       9.817       9.598       9.184       8.452       7.256       5.462       3.012      8.9393E-03
1
              HEAD IN LAYER   4 AT END OF TIME STEP  74 IN STRESS PERIOD    2
  ---------------------------------------------------------------------------

            1           2           3           4           5           6           7           8           9          10
 ........................................................................................................................
   1   10.000       9.930       9.815       9.594       9.177       8.442       7.243       5.448       3.000      8.9693E-03
   2   10.000       9.930       9.815       9.594       9.177       8.442       7.243       5.448       3.000      8.9693E-03
   3   10.000       9.930       9.815       9.594       9.177       8.442       7.243       5.448       3.000      8.9693E-03
   4   10.000       9.930       9.815       9.594       9.177       8.442       7.243       5.448       3.000      8.9693E-03
   5   10.000       9.930       9.815       9.594       9.177       8.442       7.243       5.448       3.000      8.9693E-03
   6   10.000       9.930       9.815       9.594       9.177       8.442       7.243       5.448       3.000      8.9693E-03
   7   10.000       9.930       9.815       9.594       9.177       8.442       7.243       5.448       3.000      8.9693E-03
   8   10.000       9.930       9.815       9.594       9.177       8.442       7.243       5.448       3.000      8.9693E-03
   9   10.000       9.930       9.815       9.594       9.177       8.442       7.243       5.448       3.000      8.9693E-03
  10   10.000       9.930       9.815       9.594       9.177       8.442       7.243       5.448       3.000      8.9693E-03

 HEAD WILL BE SAVED ON UNIT   51 AT END OF TIME STEP   74, STRESS PERIOD    2

 DRAWDOWN WILL BE SAVED ON UNIT   52 AT END OF TIME STEP   74, STRESS PERIOD    2
1
  VOLUMETRIC BUDGET FOR ENTIRE MODEL AT END OF TIME STEP   74, STRESS PERIOD   2
  ------------------------------------------------------------------------------

     CUMULATIVE VOLUMES      L**3       RATES FOR THIS TIME STEP      L**3/T
     ------------------                 ------------------------

           IN:                                      IN:
           ---                                      ---
             STORAGE =      282157.0625               STORAGE =        1502.1250
       CONSTANT HEAD =           0.0000         CONSTANT HEAD =           0.0000
               WELLS =           0.0000                 WELLS =           0.0000
     HEAD DEP BOUNDS =         732.7007       HEAD DEP BOUNDS =          40.3862

            TOTAL IN =      282889.7500              TOTAL IN =        1542.5112

          OUT:                                     OUT:
          ----                                     ----
             STORAGE =           0.0000               STORAGE =           0.0000
       CONSTANT HEAD =           0.0000         CONSTANT HEAD =           0.0000
               WELLS =           0.0000                 WELLS =           0.0000
     HEAD DEP BOUNDS =      282890.7188       HEAD DEP BOUNDS =        1542.4385

           TOTAL OUT =      282890.7188             TOTAL OUT =        1542.4385

            IN - OUT =          -0.9688              IN - OUT =       7.2754E-02

 PERCENT DISCREPANCY =          -0.00     PERCENT DISCREPANCY =           0.00






         TIME SUMMARY AT END OF TIME STEP   74 IN STRESS PERIOD    2
                    SECONDS     MINUTES      HOURS       DAYS        YEARS
                    -----------------------------------------------------------
   TIME STEP LENGTH  86400.      1440.0      24.000      1.0000     2.73785E-03
 STRESS PERIOD TIME 6.39360E+06 1.06560E+05  1776.0      74.000     0.20260    
         TOTAL TIME 6.48000E+06 1.08000E+05  1800.0      75.000     0.20534    
1
 
 SOLVING FOR HEAD 

 OUTPUT CONTROL FOR STRESS PERIOD    2   TIME STEP   75
    SAVE HEAD FOR ALL LAYERS
    SAVE DRAWDOWN FOR ALL LAYERS
    SAVE BUDGET
    PRINT HEAD FOR ALL LAYERS
    PRINT BUDGET
 UBDSV1 SAVING "         STORAGE" ON UNIT  53 AT TIME STEP 75, STRESS PERIOD   2
 UBDSV2 SAVING "   CONSTANT HEAD" ON UNIT  53 AT TIME STEP 75, STRESS PERIOD   2
 UBDSV1 SAVING "FLOW RIGHT FACE " ON UNIT  53 AT TIME STEP 75, STRESS PERIOD   2
 UBDSV1 SAVING "FLOW FRONT FACE " ON UNIT  53 AT TIME STEP 75, STRESS PERIOD   2
 UBDSV1 SAVING "FLOW LOWER FACE " ON UNIT  53 AT TIME STEP 75, STRESS PERIOD   2
1
              HEAD IN LAYER   1 AT END OF TIME STEP  75 IN STRESS PERIOD    2
  ---------------------------------------------------------------------------

            1           2           3           4           5           6           7           8           9          10
 ........................................................................................................................
   1   10.000       9.933       9.822       9.608       9.200       8.475       7.286       5.496       3.043      4.5191E-03
   2   10.000       9.933       9.822       9.608       9.200       8.475       7.286       5.496       3.043      4.5191E-03
   3   10.000       9.933       9.822       9.608       9.200       8.475       7.286       5.496       3.043      4.5191E-03
   4   10.000       9.933       9.822       9.608       9.200       8.475       7.286       5.496       3.043      4.5191E-03
   5   10.000       9.933       9.822       9.608       9.200       8.475       7.286       5.496       3.043      4.5191E-03
   6   10.000       9.933       9.822       9.608       9.200       8.475       7.286       5.496       3.043      4.5191E-03
   7   10.000       9.933       9.822       9.608       9.200       8.475       7.286       5.496       3.043      4.5191E-03
   8   10.000       9.933       9.822       9.608       9.200       8.475       7.286       5.496       3.043      4.5191E-03
   9   10.000       9.933       9.822       9.608       9.200       8.475       7.286       5.496       3.043      4.5191E-03
  10   10.000       9.933       9.822       9.608       9.200       8.475       7.286       5.496       3.043      4.5191E-03
1
              HEAD IN LAYER   2 AT END OF TIME STEP  75 IN STRESS PERIOD    2
  ---------------------------------------------------------------------------

            1           2           3           4           5           6           7           8           9          10
 ........................................................................................................................
   1   10.000       9.930       9.816       9.595       9.180       8.447       7.252       5.461       3.016      8.3334E-03
   2   10.000       9.930       9.816       9.595       9.180       8.447       7.252       5.461       3.016      8.3334E-03
   3   10.000       9.930       9.816       9.595       9.180       8.447       7.252       5.461       3.016      8.3334E-03
   4   10.000       9.930       9.816       9.595       9.180       8.447       7.252       5.461       3.016      8.3334E-03
   5   10.000       9.930       9.816       9.595       9.180       8.447       7.252       5.461       3.016      8.3334E-03
   6   10.000       9.930       9.816       9.595       9.180       8.447       7.252       5.461       3.016      8.3334E-03
   7   10.000       9.930       9.816       9.595       9.180       8.447       7.252       5.461       3.016      8.3334E-03
   8   10.000       9.930       9.816       9.595       9.180       8.447       7.252       5.461       3.016      8.3334E-03
   9   10.000       9.930       9.816       9.595       9.180       8.447       7.252       5.461       3.016      8.3334E-03
  10   10.000       9.930       9.816       9.595       9.180       8.447       7.252       5.461       3.016      8.3334E-03
1
              HEAD IN LAYER   3 AT END OF TIME STEP  75 IN STRESS PERIOD    2
  ---------------------------------------------------------------------------

            1           2           3           4           5           6           7           8           9          10
 ........................................................................................................................
   1   10.000       9.928       9.811       9.587       9.166       8.427       7.226       5.433       2.993      8.8821E-03
   2   10.000       9.928       9.811       9.587       9.166       8.427       7.226       5.433       2.993      8.8821E-03
   3   10.000       9.928       9.811       9.587       9.166       8.427       7.226       5.433       2.993      8.8821E-03
   4   10.000       9.928       9.811       9.587       9.166       8.427       7.226       5.433       2.993      8.8821E-03
   5   10.000       9.928       9.811       9.587       9.166       8.427       7.226       5.433       2.993      8.8821E-03
   6   10.000       9.928       9.811       9.587       9.166       8.427       7.226       5.433       2.993      8.8821E-03
   7   10.000       9.928       9.811       9.587       9.166       8.427       7.226       5.433       2.993      8.8821E-03
   8   10.000       9.928       9.811       9.587       9.166       8.427       7.226       5.433       2.993      8.8821E-03
   9   10.000       9.928       9.811       9.587       9.166       8.427       7.226       5.433       2.993      8.8821E-03
  10   10.000       9.928       9.811       9.587       9.166       8.427       7.226       5.433       2.993      8.8821E-03
1
              HEAD IN LAYER   4 AT END OF TIME STEP  75 IN STRESS PERIOD    2
  ---------------------------------------------------------------------------

            1           2           3           4           5           6           7           8           9          10
 ........................................................................................................................
   1   10.000       9.927       9.809       9.583       9.160       8.418       7.214       5.419       2.981      8.9124E-03
   2   10.000       9.927       9.809       9.583       9.160       8.418       7.214       5.419       2.981      8.9124E-03
   3   10.000       9.927       9.809       9.583       9.160       8.418       7.214       5.419       2.981      8.9124E-03
   4   10.000       9.927       9.809       9.583       9.160       8.418       7.214       5.419       2.981      8.9124E-03
   5   10.000       9.927       9.809       9.583       9.160       8.418       7.214       5.419       2.981      8.9124E-03
   6   10.000       9.927       9.809       9.583       9.160       8.418       7.214       5.419       2.981      8.9124E-03
   7   10.000       9.927       9.809       9.583       9.160       8.418       7.214       5.419       2.981      8.9124E-03
   8   10.000       9.927       9.809       9.583       9.160       8.418       7.214       5.419       2.981      8.9124E-03
   9   10.000       9.927       9.809       9.583       9.160       8.418       7.214       5.419       2.981      8.9124E-03
  10   10.000       9.927       9.809       9.583       9.160       8.418       7.214       5.419       2.981      8.9124E-03

 HEAD WILL BE SAVED ON UNIT   51 AT END OF TIME STEP   75, STRESS PERIOD    2

 DRAWDOWN WILL BE SAVED ON UNIT   52 AT END OF TIME STEP   75, STRESS PERIOD    2
1
  VOLUMETRIC BUDGET FOR ENTIRE MODEL AT END OF TIME STEP   75, STRESS PERIOD   2
  ------------------------------------------------------------------------------

     CUMULATIVE VOLUMES      L**3       RATES FOR THIS TIME STEP      L**3/T
     ------------------                 ------------------------

           IN:                                      IN:
           ---                                      ---
             STORAGE =      283647.5000               STORAGE =        1490.4310
       CONSTANT HEAD =           0.0000         CONSTANT HEAD =           0.0000
               WELLS =           0.0000                 WELLS =           0.0000
     HEAD DEP BOUNDS =         774.6135       HEAD DEP BOUNDS =          41.9129

            TOTAL IN =      284422.1250              TOTAL IN =        1532.3439

          OUT:                                     OUT:
          ----                                     ----
             STORAGE =           0.0000               STORAGE =           0.0000
       CONSTANT HEAD =           0.0000         CONSTANT HEAD =           0.0000
               WELLS =           0.0000                 WELLS =           0.0000
     HEAD DEP BOUNDS =      284423.0625       HEAD DEP BOUNDS =        1532.3514

           TOTAL OUT =      284423.0625             TOTAL OUT =        1532.3514

            IN - OUT =          -0.9375              IN - OUT =      -7.5684E-03

 PERCENT DISCREPANCY =          -0.00     PERCENT DISCREPANCY =          -0.00






         TIME SUMMARY AT END OF TIME STEP   75 IN STRESS PERIOD    2
                    SECONDS     MINUTES      HOURS       DAYS        YEARS
                    -----------------------------------------------------------
   TIME STEP LENGTH  86400.      1440.0      24.000      1.0000     2.73785E-03
 STRESS PERIOD TIME 6.48000E+06 1.08000E+05  1800.0      75.000     0.20534    
         TOTAL TIME 6.56640E+06 1.09440E+05  1824.0      76.000     0.20808    
1
 
 SOLVING FOR HEAD 

 OUTPUT CONTROL FOR STRESS PERIOD    2   TIME STEP   76
    SAVE HEAD FOR ALL LAYERS
    SAVE DRAWDOWN FOR ALL LAYERS
    SAVE BUDGET
    PRINT HEAD FOR ALL LAYERS
    PRINT BUDGET
 UBDSV1 SAVING "         STORAGE" ON UNIT  53 AT TIME STEP 76, STRESS PERIOD   2
 UBDSV2 SAVING "   CONSTANT HEAD" ON UNIT  53 AT TIME STEP 76, STRESS PERIOD   2
 UBDSV1 SAVING "FLOW RIGHT FACE " ON UNIT  53 AT TIME STEP 76, STRESS PERIOD   2
 UBDSV1 SAVING "FLOW FRONT FACE " ON UNIT  53 AT TIME STEP 76, STRESS PERIOD   2
 UBDSV1 SAVING "FLOW LOWER FACE " ON UNIT  53 AT TIME STEP 76, STRESS PERIOD   2
1
              HEAD IN LAYER   1 AT END OF TIME STEP  76 IN STRESS PERIOD    2
  ---------------------------------------------------------------------------

            1           2           3           4           5           6           7           8           9          10
 ........................................................................................................................
   1   10.000       9.931       9.816       9.596       9.182       8.450       7.256       5.467       3.024      4.4869E-03
   2   10.000       9.931       9.816       9.596       9.182       8.450       7.256       5.467       3.024      4.4869E-03
   3   10.000       9.931       9.816       9.596       9.182       8.450       7.256       5.467       3.024      4.4869E-03
   4   10.000       9.931       9.816       9.596       9.182       8.450       7.256       5.467       3.024      4.4869E-03
   5   10.000       9.931       9.816       9.596       9.182       8.450       7.256       5.467       3.024      4.4869E-03
   6   10.000       9.931       9.816       9.596       9.182       8.450       7.256       5.467       3.024      4.4869E-03
   7   10.000       9.931       9.816       9.596       9.182       8.450       7.256       5.467       3.024      4.4869E-03
   8   10.000       9.931       9.816       9.596       9.182       8.450       7.256       5.467       3.024      4.4869E-03
   9   10.000       9.931       9.816       9.596       9.182       8.450       7.256       5.467       3.024      4.4869E-03
  10   10.000       9.931       9.816       9.596       9.182       8.450       7.256       5.467       3.024      4.4869E-03
1
              HEAD IN LAYER   2 AT END OF TIME STEP  76 IN STRESS PERIOD    2
  ---------------------------------------------------------------------------

            1           2           3           4           5           6           7           8           9          10
 ........................................................................................................................
   1   10.000       9.928       9.809       9.584       9.162       8.422       7.222       5.432       2.997      8.2798E-03
   2   10.000       9.928       9.809       9.584       9.162       8.422       7.222       5.432       2.997      8.2798E-03
   3   10.000       9.928       9.809       9.584       9.162       8.422       7.222       5.432       2.997      8.2798E-03
   4   10.000       9.928       9.809       9.584       9.162       8.422       7.222       5.432       2.997      8.2798E-03
   5   10.000       9.928       9.809       9.584       9.162       8.422       7.222       5.432       2.997      8.2798E-03
   6   10.000       9.928       9.809       9.584       9.162       8.422       7.222       5.432       2.997      8.2798E-03
   7   10.000       9.928       9.809       9.584       9.162       8.422       7.222       5.432       2.997      8.2798E-03
   8   10.000       9.928       9.809       9.584       9.162       8.422       7.222       5.432       2.997      8.2798E-03
   9   10.000       9.928       9.809       9.584       9.162       8.422       7.222       5.432       2.997      8.2798E-03
  10   10.000       9.928       9.809       9.584       9.162       8.422       7.222       5.432       2.997      8.2798E-03
1
              HEAD IN LAYER   3 AT END OF TIME STEP  76 IN STRESS PERIOD    2
  ---------------------------------------------------------------------------

            1           2           3           4           5           6           7           8           9          10
 ........................................................................................................................
   1   10.000       9.926       9.805       9.576       9.149       8.403       7.197       5.405       2.974      8.8260E-03
   2   10.000       9.926       9.805       9.576       9.149       8.403       7.197       5.405       2.974      8.8260E-03
   3   10.000       9.926       9.805       9.576       9.149       8.403       7.197       5.405       2.974      8.8260E-03
   4   10.000       9.926       9.805       9.576       9.149       8.403       7.197       5.405       2.974      8.8260E-03
   5   10.000       9.926       9.805       9.576       9.149       8.403       7.197       5.405       2.974      8.8260E-03
   6   10.000       9.926       9.805       9.576       9.149       8.403       7.197       5.405       2.974      8.8260E-03
   7   10.000       9.926       9.805       9.576       9.149       8.403       7.197       5.405       2.974      8.8260E-03
   8   10.000       9.926       9.805       9.576       9.149       8.403       7.197       5.405       2.974      8.8260E-03
   9   10.000       9.926       9.805       9.576       9.149       8.403       7.197       5.405       2.974      8.8260E-03
  10   10.000       9.926       9.805       9.576       9.149       8.403       7.197       5.405       2.974      8.8260E-03
1
              HEAD IN LAYER   4 AT END OF TIME STEP  76 IN STRESS PERIOD    2
  ---------------------------------------------------------------------------

            1           2           3           4           5           6           7           8           9          10
 ........................................................................................................................
   1   10.000       9.925       9.803       9.571       9.142       8.393       7.185       5.391       2.962      8.8565E-03
   2   10.000       9.925       9.803       9.571       9.142       8.393       7.185       5.391       2.962      8.8565E-03
   3   10.000       9.925       9.803       9.571       9.142       8.393       7.185       5.391       2.962      8.8565E-03
   4   10.000       9.925       9.803       9.571       9.142       8.393       7.185       5.391       2.962      8.8565E-03
   5   10.000       9.925       9.803       9.571       9.142       8.393       7.185       5.391       2.962      8.8565E-03
   6   10.000       9.925       9.803       9.571       9.142       8.393       7.185       5.391       2.962      8.8565E-03
   7   10.000       9.925       9.803       9.571       9.142       8.393       7.185       5.391       2.962      8.8565E-03
   8   10.000       9.925       9.803       9.571       9.142       8.393       7.185       5.391       2.962      8.8565E-03
   9   10.000       9.925       9.803       9.571       9.142       8.393       7.185       5.391       2.962      8.8565E-03
  10   10.000       9.925       9.803       9.571       9.142       8.393       7.185       5.391       2.962      8.8565E-03

 HEAD WILL BE SAVED ON UNIT   51 AT END OF TIME STEP   76, STRESS PERIOD    2

 DRAWDOWN WILL BE SAVED ON UNIT   52 AT END OF TIME STEP   76, STRESS PERIOD    2
1
  VOLUMETRIC BUDGET FOR ENTIRE MODEL AT END OF TIME STEP   76, STRESS PERIOD   2
  ------------------------------------------------------------------------------

     CUMULATIVE VOLUMES      L**3       RATES FOR THIS TIME STEP      L**3/T
     ------------------                 ------------------------

           IN:                                      IN:
           ---                                      ---
             STORAGE =      285126.4375               STORAGE =        1478.9270
       CONSTANT HEAD =           0.0000         CONSTANT HEAD =           0.0000
               WELLS =           0.0000                 WELLS =           0.0000
     HEAD DEP BOUNDS =         818.1472       HEAD DEP BOUNDS =          43.5336

            TOTAL IN =      285944.5938              TOTAL IN =        1522.4606

          OUT:                                     OUT:
          ----                                     ----
             STORAGE =           0.0000               STORAGE =           0.0000
       CONSTANT HEAD =           0.0000         CONSTANT HEAD =           0.0000
               WELLS =           0.0000                 WELLS =           0.0000
     HEAD DEP BOUNDS =      285945.5312       HEAD DEP BOUNDS =        1522.4596

           TOTAL OUT =      285945.5312             TOTAL OUT =        1522.4596

            IN - OUT =          -0.9375              IN - OUT =       9.7656E-04

 PERCENT DISCREPANCY =          -0.00     PERCENT DISCREPANCY =           0.00






         TIME SUMMARY AT END OF TIME STEP   76 IN STRESS PERIOD    2
                    SECONDS     MINUTES      HOURS       DAYS        YEARS
                    -----------------------------------------------------------
   TIME STEP LENGTH  86400.      1440.0      24.000      1.0000     2.73785E-03
 STRESS PERIOD TIME 6.56640E+06 1.09440E+05  1824.0      76.000     0.20808    
         TOTAL TIME 6.65280E+06 1.10880E+05  1848.0      77.000     0.21081    
1
 
 SOLVING FOR HEAD 

 OUTPUT CONTROL FOR STRESS PERIOD    2   TIME STEP   77
    SAVE HEAD FOR ALL LAYERS
    SAVE DRAWDOWN FOR ALL LAYERS
    SAVE BUDGET
    PRINT HEAD FOR ALL LAYERS
    PRINT BUDGET
 UBDSV1 SAVING "         STORAGE" ON UNIT  53 AT TIME STEP 77, STRESS PERIOD   2
 UBDSV2 SAVING "   CONSTANT HEAD" ON UNIT  53 AT TIME STEP 77, STRESS PERIOD   2
 UBDSV1 SAVING "FLOW RIGHT FACE " ON UNIT  53 AT TIME STEP 77, STRESS PERIOD   2
 UBDSV1 SAVING "FLOW FRONT FACE " ON UNIT  53 AT TIME STEP 77, STRESS PERIOD   2
 UBDSV1 SAVING "FLOW LOWER FACE " ON UNIT  53 AT TIME STEP 77, STRESS PERIOD   2
1
              HEAD IN LAYER   1 AT END OF TIME STEP  77 IN STRESS PERIOD    2
  ---------------------------------------------------------------------------

            1           2           3           4           5           6           7           8           9          10
 ........................................................................................................................
   1   10.000       9.928       9.810       9.585       9.164       8.426       7.227       5.438       3.004      4.4553E-03
   2   10.000       9.928       9.810       9.585       9.164       8.426       7.227       5.438       3.004      4.4553E-03
   3   10.000       9.928       9.810       9.585       9.164       8.426       7.227       5.438       3.004      4.4553E-03
   4   10.000       9.928       9.810       9.585       9.164       8.426       7.227       5.438       3.004      4.4553E-03
   5   10.000       9.928       9.810       9.585       9.164       8.426       7.227       5.438       3.004      4.4553E-03
   6   10.000       9.928       9.810       9.585       9.164       8.426       7.227       5.438       3.004      4.4553E-03
   7   10.000       9.928       9.810       9.585       9.164       8.426       7.227       5.438       3.004      4.4553E-03
   8   10.000       9.928       9.810       9.585       9.164       8.426       7.227       5.438       3.004      4.4553E-03
   9   10.000       9.928       9.810       9.585       9.164       8.426       7.227       5.438       3.004      4.4553E-03
  10   10.000       9.928       9.810       9.585       9.164       8.426       7.227       5.438       3.004      4.4553E-03
1
              HEAD IN LAYER   2 AT END OF TIME STEP  77 IN STRESS PERIOD    2
  ---------------------------------------------------------------------------

            1           2           3           4           5           6           7           8           9          10
 ........................................................................................................................
   1   10.000       9.925       9.803       9.573       9.144       8.398       7.193       5.403       2.978      8.2271E-03
   2   10.000       9.925       9.803       9.573       9.144       8.398       7.193       5.403       2.978      8.2271E-03
   3   10.000       9.925       9.803       9.573       9.144       8.398       7.193       5.403       2.978      8.2271E-03
   4   10.000       9.925       9.803       9.573       9.144       8.398       7.193       5.403       2.978      8.2271E-03
   5   10.000       9.925       9.803       9.573       9.144       8.398       7.193       5.403       2.978      8.2271E-03
   6   10.000       9.925       9.803       9.573       9.144       8.398       7.193       5.403       2.978      8.2271E-03
   7   10.000       9.925       9.803       9.573       9.144       8.398       7.193       5.403       2.978      8.2271E-03
   8   10.000       9.925       9.803       9.573       9.144       8.398       7.193       5.403       2.978      8.2271E-03
   9   10.000       9.925       9.803       9.573       9.144       8.398       7.193       5.403       2.978      8.2271E-03
  10   10.000       9.925       9.803       9.573       9.144       8.398       7.193       5.403       2.978      8.2271E-03
1
              HEAD IN LAYER   3 AT END OF TIME STEP  77 IN STRESS PERIOD    2
  ---------------------------------------------------------------------------

            1           2           3           4           5           6           7           8           9          10
 ........................................................................................................................
   1   10.000       9.923       9.798       9.564       9.131       8.378       7.168       5.376       2.955      8.7710E-03
   2   10.000       9.923       9.798       9.564       9.131       8.378       7.168       5.376       2.955      8.7710E-03
   3   10.000       9.923       9.798       9.564       9.131       8.378       7.168       5.376       2.955      8.7710E-03
   4   10.000       9.923       9.798       9.564       9.131       8.378       7.168       5.376       2.955      8.7710E-03
   5   10.000       9.923       9.798       9.564       9.131       8.378       7.168       5.376       2.955      8.7710E-03
   6   10.000       9.923       9.798       9.564       9.131       8.378       7.168       5.376       2.955      8.7710E-03
   7   10.000       9.923       9.798       9.564       9.131       8.378       7.168       5.376       2.955      8.7710E-03
   8   10.000       9.923       9.798       9.564       9.131       8.378       7.168       5.376       2.955      8.7710E-03
   9   10.000       9.923       9.798       9.564       9.131       8.378       7.168       5.376       2.955      8.7710E-03
  10   10.000       9.923       9.798       9.564       9.131       8.378       7.168       5.376       2.955      8.7710E-03
1
              HEAD IN LAYER   4 AT END OF TIME STEP  77 IN STRESS PERIOD    2
  ---------------------------------------------------------------------------

            1           2           3           4           5           6           7           8           9          10
 ........................................................................................................................
   1   10.000       9.922       9.796       9.560       9.124       8.369       7.156       5.363       2.944      8.8016E-03
   2   10.000       9.922       9.796       9.560       9.124       8.369       7.156       5.363       2.944      8.8016E-03
   3   10.000       9.922       9.796       9.560       9.124       8.369       7.156       5.363       2.944      8.8016E-03
   4   10.000       9.922       9.796       9.560       9.124       8.369       7.156       5.363       2.944      8.8016E-03
   5   10.000       9.922       9.796       9.560       9.124       8.369       7.156       5.363       2.944      8.8016E-03
   6   10.000       9.922       9.796       9.560       9.124       8.369       7.156       5.363       2.944      8.8016E-03
   7   10.000       9.922       9.796       9.560       9.124       8.369       7.156       5.363       2.944      8.8016E-03
   8   10.000       9.922       9.796       9.560       9.124       8.369       7.156       5.363       2.944      8.8016E-03
   9   10.000       9.922       9.796       9.560       9.124       8.369       7.156       5.363       2.944      8.8016E-03
  10   10.000       9.922       9.796       9.560       9.124       8.369       7.156       5.363       2.944      8.8016E-03

 HEAD WILL BE SAVED ON UNIT   51 AT END OF TIME STEP   77, STRESS PERIOD    2

 DRAWDOWN WILL BE SAVED ON UNIT   52 AT END OF TIME STEP   77, STRESS PERIOD    2
1
  VOLUMETRIC BUDGET FOR ENTIRE MODEL AT END OF TIME STEP   77, STRESS PERIOD   2
  ------------------------------------------------------------------------------

     CUMULATIVE VOLUMES      L**3       RATES FOR THIS TIME STEP      L**3/T
     ------------------                 ------------------------

           IN:                                      IN:
           ---                                      ---
             STORAGE =      286594.0312               STORAGE =        1467.5892
       CONSTANT HEAD =           0.0000         CONSTANT HEAD =           0.0000
               WELLS =           0.0000                 WELLS =           0.0000
     HEAD DEP BOUNDS =         863.3278       HEAD DEP BOUNDS =          45.1806

            TOTAL IN =      287457.3438              TOTAL IN =        1512.7698

          OUT:                                     OUT:
          ----                                     ----
             STORAGE =           0.0000               STORAGE =           0.0000
       CONSTANT HEAD =           0.0000         CONSTANT HEAD =           0.0000
               WELLS =           0.0000                 WELLS =           0.0000
     HEAD DEP BOUNDS =      287458.2812       HEAD DEP BOUNDS =        1512.7496

           TOTAL OUT =      287458.2812             TOTAL OUT =        1512.7496

            IN - OUT =          -0.9375              IN - OUT =       2.0142E-02

 PERCENT DISCREPANCY =          -0.00     PERCENT DISCREPANCY =           0.00






         TIME SUMMARY AT END OF TIME STEP   77 IN STRESS PERIOD    2
                    SECONDS     MINUTES      HOURS       DAYS        YEARS
                    -----------------------------------------------------------
   TIME STEP LENGTH  86400.      1440.0      24.000      1.0000     2.73785E-03
 STRESS PERIOD TIME 6.65280E+06 1.10880E+05  1848.0      77.000     0.21081    
         TOTAL TIME 6.73920E+06 1.12320E+05  1872.0      78.000     0.21355    
1
 
 SOLVING FOR HEAD 

 OUTPUT CONTROL FOR STRESS PERIOD    2   TIME STEP   78
    SAVE HEAD FOR ALL LAYERS
    SAVE DRAWDOWN FOR ALL LAYERS
    SAVE BUDGET
    PRINT HEAD FOR ALL LAYERS
    PRINT BUDGET
 UBDSV1 SAVING "         STORAGE" ON UNIT  53 AT TIME STEP 78, STRESS PERIOD   2
 UBDSV2 SAVING "   CONSTANT HEAD" ON UNIT  53 AT TIME STEP 78, STRESS PERIOD   2
 UBDSV1 SAVING "FLOW RIGHT FACE " ON UNIT  53 AT TIME STEP 78, STRESS PERIOD   2
 UBDSV1 SAVING "FLOW FRONT FACE " ON UNIT  53 AT TIME STEP 78, STRESS PERIOD   2
 UBDSV1 SAVING "FLOW LOWER FACE " ON UNIT  53 AT TIME STEP 78, STRESS PERIOD   2
1
              HEAD IN LAYER   1 AT END OF TIME STEP  78 IN STRESS PERIOD    2
  ---------------------------------------------------------------------------

            1           2           3           4           5           6           7           8           9          10
 ........................................................................................................................
   1   10.000       9.925       9.804       9.574       9.147       8.401       7.197       5.409       2.985      4.4242E-03
   2   10.000       9.925       9.804       9.574       9.147       8.401       7.197       5.409       2.985      4.4242E-03
   3   10.000       9.925       9.804       9.574       9.147       8.401       7.197       5.409       2.985      4.4242E-03
   4   10.000       9.925       9.804       9.574       9.147       8.401       7.197       5.409       2.985      4.4242E-03
   5   10.000       9.925       9.804       9.574       9.147       8.401       7.197       5.409       2.985      4.4242E-03
   6   10.000       9.925       9.804       9.574       9.147       8.401       7.197       5.409       2.985      4.4242E-03
   7   10.000       9.925       9.804       9.574       9.147       8.401       7.197       5.409       2.985      4.4242E-03
   8   10.000       9.925       9.804       9.574       9.147       8.401       7.197       5.409       2.985      4.4242E-03
   9   10.000       9.925       9.804       9.574       9.147       8.401       7.197       5.409       2.985      4.4242E-03
  10   10.000       9.925       9.804       9.574       9.147       8.401       7.197       5.409       2.985      4.4242E-03
1
              HEAD IN LAYER   2 AT END OF TIME STEP  78 IN STRESS PERIOD    2
  ---------------------------------------------------------------------------

            1           2           3           4           5           6           7           8           9          10
 ........................................................................................................................
   1   10.000       9.922       9.797       9.561       9.127       8.374       7.164       5.375       2.959      8.1754E-03
   2   10.000       9.922       9.797       9.561       9.127       8.374       7.164       5.375       2.959      8.1754E-03
   3   10.000       9.922       9.797       9.561       9.127       8.374       7.164       5.375       2.959      8.1754E-03
   4   10.000       9.922       9.797       9.561       9.127       8.374       7.164       5.375       2.959      8.1754E-03
   5   10.000       9.922       9.797       9.561       9.127       8.374       7.164       5.375       2.959      8.1754E-03
   6   10.000       9.922       9.797       9.561       9.127       8.374       7.164       5.375       2.959      8.1754E-03
   7   10.000       9.922       9.797       9.561       9.127       8.374       7.164       5.375       2.959      8.1754E-03
   8   10.000       9.922       9.797       9.561       9.127       8.374       7.164       5.375       2.959      8.1754E-03
   9   10.000       9.922       9.797       9.561       9.127       8.374       7.164       5.375       2.959      8.1754E-03
  10   10.000       9.922       9.797       9.561       9.127       8.374       7.164       5.375       2.959      8.1754E-03
1
              HEAD IN LAYER   3 AT END OF TIME STEP  78 IN STRESS PERIOD    2
  ---------------------------------------------------------------------------

            1           2           3           4           5           6           7           8           9          10
 ........................................................................................................................
   1   10.000       9.920       9.792       9.553       9.113       8.354       7.139       5.349       2.937      8.7169E-03
   2   10.000       9.920       9.792       9.553       9.113       8.354       7.139       5.349       2.937      8.7169E-03
   3   10.000       9.920       9.792       9.553       9.113       8.354       7.139       5.349       2.937      8.7169E-03
   4   10.000       9.920       9.792       9.553       9.113       8.354       7.139       5.349       2.937      8.7169E-03
   5   10.000       9.920       9.792       9.553       9.113       8.354       7.139       5.349       2.937      8.7169E-03
   6   10.000       9.920       9.792       9.553       9.113       8.354       7.139       5.349       2.937      8.7169E-03
   7   10.000       9.920       9.792       9.553       9.113       8.354       7.139       5.349       2.937      8.7169E-03
   8   10.000       9.920       9.792       9.553       9.113       8.354       7.139       5.349       2.937      8.7169E-03
   9   10.000       9.920       9.792       9.553       9.113       8.354       7.139       5.349       2.937      8.7169E-03
  10   10.000       9.920       9.792       9.553       9.113       8.354       7.139       5.349       2.937      8.7169E-03
1
              HEAD IN LAYER   4 AT END OF TIME STEP  78 IN STRESS PERIOD    2
  ---------------------------------------------------------------------------

            1           2           3           4           5           6           7           8           9          10
 ........................................................................................................................
   1   10.000       9.919       9.790       9.549       9.106       8.344       7.127       5.335       2.926      8.7477E-03
   2   10.000       9.919       9.790       9.549       9.106       8.344       7.127       5.335       2.926      8.7477E-03
   3   10.000       9.919       9.790       9.549       9.106       8.344       7.127       5.335       2.926      8.7477E-03
   4   10.000       9.919       9.790       9.549       9.106       8.344       7.127       5.335       2.926      8.7477E-03
   5   10.000       9.919       9.790       9.549       9.106       8.344       7.127       5.335       2.926      8.7477E-03
   6   10.000       9.919       9.790       9.549       9.106       8.344       7.127       5.335       2.926      8.7477E-03
   7   10.000       9.919       9.790       9.549       9.106       8.344       7.127       5.335       2.926      8.7477E-03
   8   10.000       9.919       9.790       9.549       9.106       8.344       7.127       5.335       2.926      8.7477E-03
   9   10.000       9.919       9.790       9.549       9.106       8.344       7.127       5.335       2.926      8.7477E-03
  10   10.000       9.919       9.790       9.549       9.106       8.344       7.127       5.335       2.926      8.7477E-03

 HEAD WILL BE SAVED ON UNIT   51 AT END OF TIME STEP   78, STRESS PERIOD    2

 DRAWDOWN WILL BE SAVED ON UNIT   52 AT END OF TIME STEP   78, STRESS PERIOD    2
1
  VOLUMETRIC BUDGET FOR ENTIRE MODEL AT END OF TIME STEP   78, STRESS PERIOD   2
  ------------------------------------------------------------------------------

     CUMULATIVE VOLUMES      L**3       RATES FOR THIS TIME STEP      L**3/T
     ------------------                 ------------------------

           IN:                                      IN:
           ---                                      ---
             STORAGE =      288050.4062               STORAGE =        1456.3875
       CONSTANT HEAD =           0.0000         CONSTANT HEAD =           0.0000
               WELLS =           0.0000                 WELLS =           0.0000
     HEAD DEP BOUNDS =         910.1807       HEAD DEP BOUNDS =          46.8530

            TOTAL IN =      288960.5938              TOTAL IN =        1503.2405

          OUT:                                     OUT:
          ----                                     ----
             STORAGE =           0.0000               STORAGE =           0.0000
       CONSTANT HEAD =           0.0000         CONSTANT HEAD =           0.0000
               WELLS =           0.0000                 WELLS =           0.0000
     HEAD DEP BOUNDS =      288961.5000       HEAD DEP BOUNDS =        1503.2155

           TOTAL OUT =      288961.5000             TOTAL OUT =        1503.2155

            IN - OUT =          -0.9062              IN - OUT =       2.5024E-02

 PERCENT DISCREPANCY =          -0.00     PERCENT DISCREPANCY =           0.00






         TIME SUMMARY AT END OF TIME STEP   78 IN STRESS PERIOD    2
                    SECONDS     MINUTES      HOURS       DAYS        YEARS
                    -----------------------------------------------------------
   TIME STEP LENGTH  86400.      1440.0      24.000      1.0000     2.73785E-03
 STRESS PERIOD TIME 6.73920E+06 1.12320E+05  1872.0      78.000     0.21355    
         TOTAL TIME 6.82560E+06 1.13760E+05  1896.0      79.000     0.21629    
1
 
 SOLVING FOR HEAD 

 OUTPUT CONTROL FOR STRESS PERIOD    2   TIME STEP   79
    SAVE HEAD FOR ALL LAYERS
    SAVE DRAWDOWN FOR ALL LAYERS
    SAVE BUDGET
    PRINT HEAD FOR ALL LAYERS
    PRINT BUDGET
 UBDSV1 SAVING "         STORAGE" ON UNIT  53 AT TIME STEP 79, STRESS PERIOD   2
 UBDSV2 SAVING "   CONSTANT HEAD" ON UNIT  53 AT TIME STEP 79, STRESS PERIOD   2
 UBDSV1 SAVING "FLOW RIGHT FACE " ON UNIT  53 AT TIME STEP 79, STRESS PERIOD   2
 UBDSV1 SAVING "FLOW FRONT FACE " ON UNIT  53 AT TIME STEP 79, STRESS PERIOD   2
 UBDSV1 SAVING "FLOW LOWER FACE " ON UNIT  53 AT TIME STEP 79, STRESS PERIOD   2
1
              HEAD IN LAYER   1 AT END OF TIME STEP  79 IN STRESS PERIOD    2
  ---------------------------------------------------------------------------

            1           2           3           4           5           6           7           8           9          10
 ........................................................................................................................
   1   10.000       9.922       9.797       9.563       9.129       8.377       7.168       5.381       2.967      4.3938E-03
   2   10.000       9.922       9.797       9.563       9.129       8.377       7.168       5.381       2.967      4.3938E-03
   3   10.000       9.922       9.797       9.563       9.129       8.377       7.168       5.381       2.967      4.3938E-03
   4   10.000       9.922       9.797       9.563       9.129       8.377       7.168       5.381       2.967      4.3938E-03
   5   10.000       9.922       9.797       9.563       9.129       8.377       7.168       5.381       2.967      4.3938E-03
   6   10.000       9.922       9.797       9.563       9.129       8.377       7.168       5.381       2.967      4.3938E-03
   7   10.000       9.922       9.797       9.563       9.129       8.377       7.168       5.381       2.967      4.3938E-03
   8   10.000       9.922       9.797       9.563       9.129       8.377       7.168       5.381       2.967      4.3938E-03
   9   10.000       9.922       9.797       9.563       9.129       8.377       7.168       5.381       2.967      4.3938E-03
  10   10.000       9.922       9.797       9.563       9.129       8.377       7.168       5.381       2.967      4.3938E-03
1
              HEAD IN LAYER   2 AT END OF TIME STEP  79 IN STRESS PERIOD    2
  ---------------------------------------------------------------------------

            1           2           3           4           5           6           7           8           9          10
 ........................................................................................................................
   1   10.000       9.919       9.790       9.550       9.109       8.349       7.135       5.348       2.941      8.1247E-03
   2   10.000       9.919       9.790       9.550       9.109       8.349       7.135       5.348       2.941      8.1247E-03
   3   10.000       9.919       9.790       9.550       9.109       8.349       7.135       5.348       2.941      8.1247E-03
   4   10.000       9.919       9.790       9.550       9.109       8.349       7.135       5.348       2.941      8.1247E-03
   5   10.000       9.919       9.790       9.550       9.109       8.349       7.135       5.348       2.941      8.1247E-03
   6   10.000       9.919       9.790       9.550       9.109       8.349       7.135       5.348       2.941      8.1247E-03
   7   10.000       9.919       9.790       9.550       9.109       8.349       7.135       5.348       2.941      8.1247E-03
   8   10.000       9.919       9.790       9.550       9.109       8.349       7.135       5.348       2.941      8.1247E-03
   9   10.000       9.919       9.790       9.550       9.109       8.349       7.135       5.348       2.941      8.1247E-03
  10   10.000       9.919       9.790       9.550       9.109       8.349       7.135       5.348       2.941      8.1247E-03
1
              HEAD IN LAYER   3 AT END OF TIME STEP  79 IN STRESS PERIOD    2
  ---------------------------------------------------------------------------

            1           2           3           4           5           6           7           8           9          10
 ........................................................................................................................
   1   10.000       9.917       9.786       9.541       9.095       8.330       7.111       5.321       2.919      8.6638E-03
   2   10.000       9.917       9.786       9.541       9.095       8.330       7.111       5.321       2.919      8.6638E-03
   3   10.000       9.917       9.786       9.541       9.095       8.330       7.111       5.321       2.919      8.6638E-03
   4   10.000       9.917       9.786       9.541       9.095       8.330       7.111       5.321       2.919      8.6638E-03
   5   10.000       9.917       9.786       9.541       9.095       8.330       7.111       5.321       2.919      8.6638E-03
   6   10.000       9.917       9.786       9.541       9.095       8.330       7.111       5.321       2.919      8.6638E-03
   7   10.000       9.917       9.786       9.541       9.095       8.330       7.111       5.321       2.919      8.6638E-03
   8   10.000       9.917       9.786       9.541       9.095       8.330       7.111       5.321       2.919      8.6638E-03
   9   10.000       9.917       9.786       9.541       9.095       8.330       7.111       5.321       2.919      8.6638E-03
  10   10.000       9.917       9.786       9.541       9.095       8.330       7.111       5.321       2.919      8.6638E-03
1
              HEAD IN LAYER   4 AT END OF TIME STEP  79 IN STRESS PERIOD    2
  ---------------------------------------------------------------------------

            1           2           3           4           5           6           7           8           9          10
 ........................................................................................................................
   1   10.000       9.916       9.783       9.537       9.089       8.320       7.099       5.308       2.908      8.6948E-03
   2   10.000       9.916       9.783       9.537       9.089       8.320       7.099       5.308       2.908      8.6948E-03
   3   10.000       9.916       9.783       9.537       9.089       8.320       7.099       5.308       2.908      8.6948E-03
   4   10.000       9.916       9.783       9.537       9.089       8.320       7.099       5.308       2.908      8.6948E-03
   5   10.000       9.916       9.783       9.537       9.089       8.320       7.099       5.308       2.908      8.6948E-03
   6   10.000       9.916       9.783       9.537       9.089       8.320       7.099       5.308       2.908      8.6948E-03
   7   10.000       9.916       9.783       9.537       9.089       8.320       7.099       5.308       2.908      8.6948E-03
   8   10.000       9.916       9.783       9.537       9.089       8.320       7.099       5.308       2.908      8.6948E-03
   9   10.000       9.916       9.783       9.537       9.089       8.320       7.099       5.308       2.908      8.6948E-03
  10   10.000       9.916       9.783       9.537       9.089       8.320       7.099       5.308       2.908      8.6948E-03

 HEAD WILL BE SAVED ON UNIT   51 AT END OF TIME STEP   79, STRESS PERIOD    2

 DRAWDOWN WILL BE SAVED ON UNIT   52 AT END OF TIME STEP   79, STRESS PERIOD    2
1
  VOLUMETRIC BUDGET FOR ENTIRE MODEL AT END OF TIME STEP   79, STRESS PERIOD   2
  ------------------------------------------------------------------------------

     CUMULATIVE VOLUMES      L**3       RATES FOR THIS TIME STEP      L**3/T
     ------------------                 ------------------------

           IN:                                      IN:
           ---                                      ---
             STORAGE =      289495.7500               STORAGE =        1445.3461
       CONSTANT HEAD =           0.0000         CONSTANT HEAD =           0.0000
               WELLS =           0.0000                 WELLS =           0.0000
     HEAD DEP BOUNDS =         958.7311       HEAD DEP BOUNDS =          48.5504

            TOTAL IN =      290454.4688              TOTAL IN =        1493.8965

          OUT:                                     OUT:
          ----                                     ----
             STORAGE =           0.0000               STORAGE =           0.0000
       CONSTANT HEAD =           0.0000         CONSTANT HEAD =           0.0000
               WELLS =           0.0000                 WELLS =           0.0000
     HEAD DEP BOUNDS =      290455.3750       HEAD DEP BOUNDS =        1493.8601

           TOTAL OUT =      290455.3750             TOTAL OUT =        1493.8601

            IN - OUT =          -0.9062              IN - OUT =       3.6377E-02

 PERCENT DISCREPANCY =          -0.00     PERCENT DISCREPANCY =           0.00






         TIME SUMMARY AT END OF TIME STEP   79 IN STRESS PERIOD    2
                    SECONDS     MINUTES      HOURS       DAYS        YEARS
                    -----------------------------------------------------------
   TIME STEP LENGTH  86400.      1440.0      24.000      1.0000     2.73785E-03
 STRESS PERIOD TIME 6.82560E+06 1.13760E+05  1896.0      79.000     0.21629    
         TOTAL TIME 6.91200E+06 1.15200E+05  1920.0      80.000     0.21903    
1
 
 SOLVING FOR HEAD 

 OUTPUT CONTROL FOR STRESS PERIOD    2   TIME STEP   80
    SAVE HEAD FOR ALL LAYERS
    SAVE DRAWDOWN FOR ALL LAYERS
    SAVE BUDGET
    PRINT HEAD FOR ALL LAYERS
    PRINT BUDGET
 UBDSV1 SAVING "         STORAGE" ON UNIT  53 AT TIME STEP 80, STRESS PERIOD   2
 UBDSV2 SAVING "   CONSTANT HEAD" ON UNIT  53 AT TIME STEP 80, STRESS PERIOD   2
 UBDSV1 SAVING "FLOW RIGHT FACE " ON UNIT  53 AT TIME STEP 80, STRESS PERIOD   2
 UBDSV1 SAVING "FLOW FRONT FACE " ON UNIT  53 AT TIME STEP 80, STRESS PERIOD   2
 UBDSV1 SAVING "FLOW LOWER FACE " ON UNIT  53 AT TIME STEP 80, STRESS PERIOD   2
1
              HEAD IN LAYER   1 AT END OF TIME STEP  80 IN STRESS PERIOD    2
  ---------------------------------------------------------------------------

            1           2           3           4           5           6           7           8           9          10
 ........................................................................................................................
   1   10.000       9.920       9.791       9.551       9.111       8.352       7.140       5.353       2.948      4.3640E-03
   2   10.000       9.920       9.791       9.551       9.111       8.352       7.140       5.353       2.948      4.3640E-03
   3   10.000       9.920       9.791       9.551       9.111       8.352       7.140       5.353       2.948      4.3640E-03
   4   10.000       9.920       9.791       9.551       9.111       8.352       7.140       5.353       2.948      4.3640E-03
   5   10.000       9.920       9.791       9.551       9.111       8.352       7.140       5.353       2.948      4.3640E-03
   6   10.000       9.920       9.791       9.551       9.111       8.352       7.140       5.353       2.948      4.3640E-03
   7   10.000       9.920       9.791       9.551       9.111       8.352       7.140       5.353       2.948      4.3640E-03
   8   10.000       9.920       9.791       9.551       9.111       8.352       7.140       5.353       2.948      4.3640E-03
   9   10.000       9.920       9.791       9.551       9.111       8.352       7.140       5.353       2.948      4.3640E-03
  10   10.000       9.920       9.791       9.551       9.111       8.352       7.140       5.353       2.948      4.3640E-03
1
              HEAD IN LAYER   2 AT END OF TIME STEP  80 IN STRESS PERIOD    2
  ---------------------------------------------------------------------------

            1           2           3           4           5           6           7           8           9          10
 ........................................................................................................................
   1   10.000       9.916       9.784       9.539       9.091       8.325       7.107       5.320       2.923      8.0749E-03
   2   10.000       9.916       9.784       9.539       9.091       8.325       7.107       5.320       2.923      8.0749E-03
   3   10.000       9.916       9.784       9.539       9.091       8.325       7.107       5.320       2.923      8.0749E-03
   4   10.000       9.916       9.784       9.539       9.091       8.325       7.107       5.320       2.923      8.0749E-03
   5   10.000       9.916       9.784       9.539       9.091       8.325       7.107       5.320       2.923      8.0749E-03
   6   10.000       9.916       9.784       9.539       9.091       8.325       7.107       5.320       2.923      8.0749E-03
   7   10.000       9.916       9.784       9.539       9.091       8.325       7.107       5.320       2.923      8.0749E-03
   8   10.000       9.916       9.784       9.539       9.091       8.325       7.107       5.320       2.923      8.0749E-03
   9   10.000       9.916       9.784       9.539       9.091       8.325       7.107       5.320       2.923      8.0749E-03
  10   10.000       9.916       9.784       9.539       9.091       8.325       7.107       5.320       2.923      8.0749E-03
1
              HEAD IN LAYER   3 AT END OF TIME STEP  80 IN STRESS PERIOD    2
  ---------------------------------------------------------------------------

            1           2           3           4           5           6           7           8           9          10
 ........................................................................................................................
   1   10.000       9.914       9.779       9.530       9.078       8.306       7.083       5.294       2.902      8.6117E-03
   2   10.000       9.914       9.779       9.530       9.078       8.306       7.083       5.294       2.902      8.6117E-03
   3   10.000       9.914       9.779       9.530       9.078       8.306       7.083       5.294       2.902      8.6117E-03
   4   10.000       9.914       9.779       9.530       9.078       8.306       7.083       5.294       2.902      8.6117E-03
   5   10.000       9.914       9.779       9.530       9.078       8.306       7.083       5.294       2.902      8.6117E-03
   6   10.000       9.914       9.779       9.530       9.078       8.306       7.083       5.294       2.902      8.6117E-03
   7   10.000       9.914       9.779       9.530       9.078       8.306       7.083       5.294       2.902      8.6117E-03
   8   10.000       9.914       9.779       9.530       9.078       8.306       7.083       5.294       2.902      8.6117E-03
   9   10.000       9.914       9.779       9.530       9.078       8.306       7.083       5.294       2.902      8.6117E-03
  10   10.000       9.914       9.779       9.530       9.078       8.306       7.083       5.294       2.902      8.6117E-03
1
              HEAD IN LAYER   4 AT END OF TIME STEP  80 IN STRESS PERIOD    2
  ---------------------------------------------------------------------------

            1           2           3           4           5           6           7           8           9          10
 ........................................................................................................................
   1   10.000       9.913       9.777       9.526       9.071       8.296       7.071       5.282       2.891      8.6429E-03
   2   10.000       9.913       9.777       9.526       9.071       8.296       7.071       5.282       2.891      8.6429E-03
   3   10.000       9.913       9.777       9.526       9.071       8.296       7.071       5.282       2.891      8.6429E-03
   4   10.000       9.913       9.777       9.526       9.071       8.296       7.071       5.282       2.891      8.6429E-03
   5   10.000       9.913       9.777       9.526       9.071       8.296       7.071       5.282       2.891      8.6429E-03
   6   10.000       9.913       9.777       9.526       9.071       8.296       7.071       5.282       2.891      8.6429E-03
   7   10.000       9.913       9.777       9.526       9.071       8.296       7.071       5.282       2.891      8.6429E-03
   8   10.000       9.913       9.777       9.526       9.071       8.296       7.071       5.282       2.891      8.6429E-03
   9   10.000       9.913       9.777       9.526       9.071       8.296       7.071       5.282       2.891      8.6429E-03
  10   10.000       9.913       9.777       9.526       9.071       8.296       7.071       5.282       2.891      8.6429E-03

 HEAD WILL BE SAVED ON UNIT   51 AT END OF TIME STEP   80, STRESS PERIOD    2

 DRAWDOWN WILL BE SAVED ON UNIT   52 AT END OF TIME STEP   80, STRESS PERIOD    2
1
  VOLUMETRIC BUDGET FOR ENTIRE MODEL AT END OF TIME STEP   80, STRESS PERIOD   2
  ------------------------------------------------------------------------------

     CUMULATIVE VOLUMES      L**3       RATES FOR THIS TIME STEP      L**3/T
     ------------------                 ------------------------

           IN:                                      IN:
           ---                                      ---
             STORAGE =      290930.2188               STORAGE =        1434.4668
       CONSTANT HEAD =           0.0000         CONSTANT HEAD =           0.0000
               WELLS =           0.0000                 WELLS =           0.0000
     HEAD DEP BOUNDS =        1009.0040       HEAD DEP BOUNDS =          50.2728

            TOTAL IN =      291939.2188              TOTAL IN =        1484.7396

          OUT:                                     OUT:
          ----                                     ----
             STORAGE =           0.0000               STORAGE =           0.0000
       CONSTANT HEAD =           0.0000         CONSTANT HEAD =           0.0000
               WELLS =           0.0000                 WELLS =           0.0000
     HEAD DEP BOUNDS =      291940.0625       HEAD DEP BOUNDS =        1484.6783

           TOTAL OUT =      291940.0625             TOTAL OUT =        1484.6783

            IN - OUT =          -0.8438              IN - OUT =       6.1279E-02

 PERCENT DISCREPANCY =          -0.00     PERCENT DISCREPANCY =           0.00






         TIME SUMMARY AT END OF TIME STEP   80 IN STRESS PERIOD    2
                    SECONDS     MINUTES      HOURS       DAYS        YEARS
                    -----------------------------------------------------------
   TIME STEP LENGTH  86400.      1440.0      24.000      1.0000     2.73785E-03
 STRESS PERIOD TIME 6.91200E+06 1.15200E+05  1920.0      80.000     0.21903    
         TOTAL TIME 6.99840E+06 1.16640E+05  1944.0      81.000     0.22177    
1
 
 SOLVING FOR HEAD 

 OUTPUT CONTROL FOR STRESS PERIOD    2   TIME STEP   81
    SAVE HEAD FOR ALL LAYERS
    SAVE DRAWDOWN FOR ALL LAYERS
    SAVE BUDGET
    PRINT HEAD FOR ALL LAYERS
    PRINT BUDGET
 UBDSV1 SAVING "         STORAGE" ON UNIT  53 AT TIME STEP 81, STRESS PERIOD   2
 UBDSV2 SAVING "   CONSTANT HEAD" ON UNIT  53 AT TIME STEP 81, STRESS PERIOD   2
 UBDSV1 SAVING "FLOW RIGHT FACE " ON UNIT  53 AT TIME STEP 81, STRESS PERIOD   2
 UBDSV1 SAVING "FLOW FRONT FACE " ON UNIT  53 AT TIME STEP 81, STRESS PERIOD   2
 UBDSV1 SAVING "FLOW LOWER FACE " ON UNIT  53 AT TIME STEP 81, STRESS PERIOD   2
1
              HEAD IN LAYER   1 AT END OF TIME STEP  81 IN STRESS PERIOD    2
  ---------------------------------------------------------------------------

            1           2           3           4           5           6           7           8           9          10
 ........................................................................................................................
   1   10.000       9.917       9.785       9.540       9.093       8.328       7.111       5.326       2.930      4.3348E-03
   2   10.000       9.917       9.785       9.540       9.093       8.328       7.111       5.326       2.930      4.3348E-03
   3   10.000       9.917       9.785       9.540       9.093       8.328       7.111       5.326       2.930      4.3348E-03
   4   10.000       9.917       9.785       9.540       9.093       8.328       7.111       5.326       2.930      4.3348E-03
   5   10.000       9.917       9.785       9.540       9.093       8.328       7.111       5.326       2.930      4.3348E-03
   6   10.000       9.917       9.785       9.540       9.093       8.328       7.111       5.326       2.930      4.3348E-03
   7   10.000       9.917       9.785       9.540       9.093       8.328       7.111       5.326       2.930      4.3348E-03
   8   10.000       9.917       9.785       9.540       9.093       8.328       7.111       5.326       2.930      4.3348E-03
   9   10.000       9.917       9.785       9.540       9.093       8.328       7.111       5.326       2.930      4.3348E-03
  10   10.000       9.917       9.785       9.540       9.093       8.328       7.111       5.326       2.930      4.3348E-03
1
              HEAD IN LAYER   2 AT END OF TIME STEP  81 IN STRESS PERIOD    2
  ---------------------------------------------------------------------------

            1           2           3           4           5           6           7           8           9          10
 ........................................................................................................................
   1   10.000       9.914       9.777       9.527       9.074       8.301       7.079       5.294       2.906      8.0260E-03
   2   10.000       9.914       9.777       9.527       9.074       8.301       7.079       5.294       2.906      8.0260E-03
   3   10.000       9.914       9.777       9.527       9.074       8.301       7.079       5.294       2.906      8.0260E-03
   4   10.000       9.914       9.777       9.527       9.074       8.301       7.079       5.294       2.906      8.0260E-03
   5   10.000       9.914       9.777       9.527       9.074       8.301       7.079       5.294       2.906      8.0260E-03
   6   10.000       9.914       9.777       9.527       9.074       8.301       7.079       5.294       2.906      8.0260E-03
   7   10.000       9.914       9.777       9.527       9.074       8.301       7.079       5.294       2.906      8.0260E-03
   8   10.000       9.914       9.777       9.527       9.074       8.301       7.079       5.294       2.906      8.0260E-03
   9   10.000       9.914       9.777       9.527       9.074       8.301       7.079       5.294       2.906      8.0260E-03
  10   10.000       9.914       9.777       9.527       9.074       8.301       7.079       5.294       2.906      8.0260E-03
1
              HEAD IN LAYER   3 AT END OF TIME STEP  81 IN STRESS PERIOD    2
  ---------------------------------------------------------------------------

            1           2           3           4           5           6           7           8           9          10
 ........................................................................................................................
   1   10.000       9.911       9.772       9.518       9.060       8.282       7.055       5.268       2.884      8.5606E-03
   2   10.000       9.911       9.772       9.518       9.060       8.282       7.055       5.268       2.884      8.5606E-03
   3   10.000       9.911       9.772       9.518       9.060       8.282       7.055       5.268       2.884      8.5606E-03
   4   10.000       9.911       9.772       9.518       9.060       8.282       7.055       5.268       2.884      8.5606E-03
   5   10.000       9.911       9.772       9.518       9.060       8.282       7.055       5.268       2.884      8.5606E-03
   6   10.000       9.911       9.772       9.518       9.060       8.282       7.055       5.268       2.884      8.5606E-03
   7   10.000       9.911       9.772       9.518       9.060       8.282       7.055       5.268       2.884      8.5606E-03
   8   10.000       9.911       9.772       9.518       9.060       8.282       7.055       5.268       2.884      8.5606E-03
   9   10.000       9.911       9.772       9.518       9.060       8.282       7.055       5.268       2.884      8.5606E-03
  10   10.000       9.911       9.772       9.518       9.060       8.282       7.055       5.268       2.884      8.5606E-03
1
              HEAD IN LAYER   4 AT END OF TIME STEP  81 IN STRESS PERIOD    2
  ---------------------------------------------------------------------------

            1           2           3           4           5           6           7           8           9          10
 ........................................................................................................................
   1   10.000       9.910       9.770       9.514       9.053       8.273       7.043       5.255       2.874      8.5919E-03
   2   10.000       9.910       9.770       9.514       9.053       8.273       7.043       5.255       2.874      8.5919E-03
   3   10.000       9.910       9.770       9.514       9.053       8.273       7.043       5.255       2.874      8.5919E-03
   4   10.000       9.910       9.770       9.514       9.053       8.273       7.043       5.255       2.874      8.5919E-03
   5   10.000       9.910       9.770       9.514       9.053       8.273       7.043       5.255       2.874      8.5919E-03
   6   10.000       9.910       9.770       9.514       9.053       8.273       7.043       5.255       2.874      8.5919E-03
   7   10.000       9.910       9.770       9.514       9.053       8.273       7.043       5.255       2.874      8.5919E-03
   8   10.000       9.910       9.770       9.514       9.053       8.273       7.043       5.255       2.874      8.5919E-03
   9   10.000       9.910       9.770       9.514       9.053       8.273       7.043       5.255       2.874      8.5919E-03
  10   10.000       9.910       9.770       9.514       9.053       8.273       7.043       5.255       2.874      8.5919E-03

 HEAD WILL BE SAVED ON UNIT   51 AT END OF TIME STEP   81, STRESS PERIOD    2

 DRAWDOWN WILL BE SAVED ON UNIT   52 AT END OF TIME STEP   81, STRESS PERIOD    2
1
  VOLUMETRIC BUDGET FOR ENTIRE MODEL AT END OF TIME STEP   81, STRESS PERIOD   2
  ------------------------------------------------------------------------------

     CUMULATIVE VOLUMES      L**3       RATES FOR THIS TIME STEP      L**3/T
     ------------------                 ------------------------

           IN:                                      IN:
           ---                                      ---
             STORAGE =      292353.9062               STORAGE =        1423.7004
       CONSTANT HEAD =           0.0000         CONSTANT HEAD =           0.0000
               WELLS =           0.0000                 WELLS =           0.0000
     HEAD DEP BOUNDS =        1061.0232       HEAD DEP BOUNDS =          52.0192

            TOTAL IN =      293414.9375              TOTAL IN =        1475.7197

          OUT:                                     OUT:
          ----                                     ----
             STORAGE =           0.0000               STORAGE =           0.0000
       CONSTANT HEAD =           0.0000         CONSTANT HEAD =           0.0000
               WELLS =           0.0000                 WELLS =           0.0000
     HEAD DEP BOUNDS =      293415.7188       HEAD DEP BOUNDS =        1475.6664

           TOTAL OUT =      293415.7188             TOTAL OUT =        1475.6664

            IN - OUT =          -0.7812              IN - OUT =       5.3345E-02

 PERCENT DISCREPANCY =          -0.00     PERCENT DISCREPANCY =           0.00






         TIME SUMMARY AT END OF TIME STEP   81 IN STRESS PERIOD    2
                    SECONDS     MINUTES      HOURS       DAYS        YEARS
                    -----------------------------------------------------------
   TIME STEP LENGTH  86400.      1440.0      24.000      1.0000     2.73785E-03
 STRESS PERIOD TIME 6.99840E+06 1.16640E+05  1944.0      81.000     0.22177    
         TOTAL TIME 7.08480E+06 1.18080E+05  1968.0      82.000     0.22450    
1
 
 SOLVING FOR HEAD 

 OUTPUT CONTROL FOR STRESS PERIOD    2   TIME STEP   82
    SAVE HEAD FOR ALL LAYERS
    SAVE DRAWDOWN FOR ALL LAYERS
    SAVE BUDGET
    PRINT HEAD FOR ALL LAYERS
    PRINT BUDGET
 UBDSV1 SAVING "         STORAGE" ON UNIT  53 AT TIME STEP 82, STRESS PERIOD   2
 UBDSV2 SAVING "   CONSTANT HEAD" ON UNIT  53 AT TIME STEP 82, STRESS PERIOD   2
 UBDSV1 SAVING "FLOW RIGHT FACE " ON UNIT  53 AT TIME STEP 82, STRESS PERIOD   2
 UBDSV1 SAVING "FLOW FRONT FACE " ON UNIT  53 AT TIME STEP 82, STRESS PERIOD   2
 UBDSV1 SAVING "FLOW LOWER FACE " ON UNIT  53 AT TIME STEP 82, STRESS PERIOD   2
1
              HEAD IN LAYER   1 AT END OF TIME STEP  82 IN STRESS PERIOD    2
  ---------------------------------------------------------------------------

            1           2           3           4           5           6           7           8           9          10
 ........................................................................................................................
   1   10.000       9.914       9.778       9.528       9.076       8.304       7.083       5.299       2.913      4.3060E-03
   2   10.000       9.914       9.778       9.528       9.076       8.304       7.083       5.299       2.913      4.3060E-03
   3   10.000       9.914       9.778       9.528       9.076       8.304       7.083       5.299       2.913      4.3060E-03
   4   10.000       9.914       9.778       9.528       9.076       8.304       7.083       5.299       2.913      4.3060E-03
   5   10.000       9.914       9.778       9.528       9.076       8.304       7.083       5.299       2.913      4.3060E-03
   6   10.000       9.914       9.778       9.528       9.076       8.304       7.083       5.299       2.913      4.3060E-03
   7   10.000       9.914       9.778       9.528       9.076       8.304       7.083       5.299       2.913      4.3060E-03
   8   10.000       9.914       9.778       9.528       9.076       8.304       7.083       5.299       2.913      4.3060E-03
   9   10.000       9.914       9.778       9.528       9.076       8.304       7.083       5.299       2.913      4.3060E-03
  10   10.000       9.914       9.778       9.528       9.076       8.304       7.083       5.299       2.913      4.3060E-03
1
              HEAD IN LAYER   2 AT END OF TIME STEP  82 IN STRESS PERIOD    2
  ---------------------------------------------------------------------------

            1           2           3           4           5           6           7           8           9          10
 ........................................................................................................................
   1   10.000       9.911       9.771       9.515       9.056       8.277       7.051       5.267       2.888      7.9780E-03
   2   10.000       9.911       9.771       9.515       9.056       8.277       7.051       5.267       2.888      7.9780E-03
   3   10.000       9.911       9.771       9.515       9.056       8.277       7.051       5.267       2.888      7.9780E-03
   4   10.000       9.911       9.771       9.515       9.056       8.277       7.051       5.267       2.888      7.9780E-03
   5   10.000       9.911       9.771       9.515       9.056       8.277       7.051       5.267       2.888      7.9780E-03
   6   10.000       9.911       9.771       9.515       9.056       8.277       7.051       5.267       2.888      7.9780E-03
   7   10.000       9.911       9.771       9.515       9.056       8.277       7.051       5.267       2.888      7.9780E-03
   8   10.000       9.911       9.771       9.515       9.056       8.277       7.051       5.267       2.888      7.9780E-03
   9   10.000       9.911       9.771       9.515       9.056       8.277       7.051       5.267       2.888      7.9780E-03
  10   10.000       9.911       9.771       9.515       9.056       8.277       7.051       5.267       2.888      7.9780E-03
1
              HEAD IN LAYER   3 AT END OF TIME STEP  82 IN STRESS PERIOD    2
  ---------------------------------------------------------------------------

            1           2           3           4           5           6           7           8           9          10
 ........................................................................................................................
   1   10.000       9.908       9.766       9.507       9.042       8.258       7.027       5.242       2.867      8.5103E-03
   2   10.000       9.908       9.766       9.507       9.042       8.258       7.027       5.242       2.867      8.5103E-03
   3   10.000       9.908       9.766       9.507       9.042       8.258       7.027       5.242       2.867      8.5103E-03
   4   10.000       9.908       9.766       9.507       9.042       8.258       7.027       5.242       2.867      8.5103E-03
   5   10.000       9.908       9.766       9.507       9.042       8.258       7.027       5.242       2.867      8.5103E-03
   6   10.000       9.908       9.766       9.507       9.042       8.258       7.027       5.242       2.867      8.5103E-03
   7   10.000       9.908       9.766       9.507       9.042       8.258       7.027       5.242       2.867      8.5103E-03
   8   10.000       9.908       9.766       9.507       9.042       8.258       7.027       5.242       2.867      8.5103E-03
   9   10.000       9.908       9.766       9.507       9.042       8.258       7.027       5.242       2.867      8.5103E-03
  10   10.000       9.908       9.766       9.507       9.042       8.258       7.027       5.242       2.867      8.5103E-03
1
              HEAD IN LAYER   4 AT END OF TIME STEP  82 IN STRESS PERIOD    2
  ---------------------------------------------------------------------------

            1           2           3           4           5           6           7           8           9          10
 ........................................................................................................................
   1   10.000       9.907       9.763       9.502       9.036       8.249       7.015       5.229       2.857      8.5417E-03
   2   10.000       9.907       9.763       9.502       9.036       8.249       7.015       5.229       2.857      8.5417E-03
   3   10.000       9.907       9.763       9.502       9.036       8.249       7.015       5.229       2.857      8.5417E-03
   4   10.000       9.907       9.763       9.502       9.036       8.249       7.015       5.229       2.857      8.5417E-03
   5   10.000       9.907       9.763       9.502       9.036       8.249       7.015       5.229       2.857      8.5417E-03
   6   10.000       9.907       9.763       9.502       9.036       8.249       7.015       5.229       2.857      8.5417E-03
   7   10.000       9.907       9.763       9.502       9.036       8.249       7.015       5.229       2.857      8.5417E-03
   8   10.000       9.907       9.763       9.502       9.036       8.249       7.015       5.229       2.857      8.5417E-03
   9   10.000       9.907       9.763       9.502       9.036       8.249       7.015       5.229       2.857      8.5417E-03
  10   10.000       9.907       9.763       9.502       9.036       8.249       7.015       5.229       2.857      8.5417E-03

 HEAD WILL BE SAVED ON UNIT   51 AT END OF TIME STEP   82, STRESS PERIOD    2

 DRAWDOWN WILL BE SAVED ON UNIT   52 AT END OF TIME STEP   82, STRESS PERIOD    2
1
  VOLUMETRIC BUDGET FOR ENTIRE MODEL AT END OF TIME STEP   82, STRESS PERIOD   2
  ------------------------------------------------------------------------------

     CUMULATIVE VOLUMES      L**3       RATES FOR THIS TIME STEP      L**3/T
     ------------------                 ------------------------

           IN:                                      IN:
           ---                                      ---
             STORAGE =      293766.9688               STORAGE =        1413.0706
       CONSTANT HEAD =           0.0000         CONSTANT HEAD =           0.0000
               WELLS =           0.0000                 WELLS =           0.0000
     HEAD DEP BOUNDS =        1114.7446       HEAD DEP BOUNDS =          53.7214

            TOTAL IN =      294881.7188              TOTAL IN =        1466.7920

          OUT:                                     OUT:
          ----                                     ----
             STORAGE =           0.0000               STORAGE =           0.0000
       CONSTANT HEAD =           0.0000         CONSTANT HEAD =           0.0000
               WELLS =           0.0000                 WELLS =           0.0000
     HEAD DEP BOUNDS =      294882.5312       HEAD DEP BOUNDS =        1466.8009

           TOTAL OUT =      294882.5312             TOTAL OUT =        1466.8009

            IN - OUT =          -0.8125              IN - OUT =      -8.9111E-03

 PERCENT DISCREPANCY =          -0.00     PERCENT DISCREPANCY =          -0.00






         TIME SUMMARY AT END OF TIME STEP   82 IN STRESS PERIOD    2
                    SECONDS     MINUTES      HOURS       DAYS        YEARS
                    -----------------------------------------------------------
   TIME STEP LENGTH  86400.      1440.0      24.000      1.0000     2.73785E-03
 STRESS PERIOD TIME 7.08480E+06 1.18080E+05  1968.0      82.000     0.22450    
         TOTAL TIME 7.17120E+06 1.19520E+05  1992.0      83.000     0.22724    
1
 
 SOLVING FOR HEAD 

 OUTPUT CONTROL FOR STRESS PERIOD    2   TIME STEP   83
    SAVE HEAD FOR ALL LAYERS
    SAVE DRAWDOWN FOR ALL LAYERS
    SAVE BUDGET
    PRINT HEAD FOR ALL LAYERS
    PRINT BUDGET
 UBDSV1 SAVING "         STORAGE" ON UNIT  53 AT TIME STEP 83, STRESS PERIOD   2
 UBDSV2 SAVING "   CONSTANT HEAD" ON UNIT  53 AT TIME STEP 83, STRESS PERIOD   2
 UBDSV1 SAVING "FLOW RIGHT FACE " ON UNIT  53 AT TIME STEP 83, STRESS PERIOD   2
 UBDSV1 SAVING "FLOW FRONT FACE " ON UNIT  53 AT TIME STEP 83, STRESS PERIOD   2
 UBDSV1 SAVING "FLOW LOWER FACE " ON UNIT  53 AT TIME STEP 83, STRESS PERIOD   2
1
              HEAD IN LAYER   1 AT END OF TIME STEP  83 IN STRESS PERIOD    2
  ---------------------------------------------------------------------------

            1           2           3           4           5           6           7           8           9          10
 ........................................................................................................................
   1   10.000       9.911       9.771       9.517       9.058       8.281       7.055       5.273       2.895      4.2779E-03
   2   10.000       9.911       9.771       9.517       9.058       8.281       7.055       5.273       2.895      4.2779E-03
   3   10.000       9.911       9.771       9.517       9.058       8.281       7.055       5.273       2.895      4.2779E-03
   4   10.000       9.911       9.771       9.517       9.058       8.281       7.055       5.273       2.895      4.2779E-03
   5   10.000       9.911       9.771       9.517       9.058       8.281       7.055       5.273       2.895      4.2779E-03
   6   10.000       9.911       9.771       9.517       9.058       8.281       7.055       5.273       2.895      4.2779E-03
   7   10.000       9.911       9.771       9.517       9.058       8.281       7.055       5.273       2.895      4.2779E-03
   8   10.000       9.911       9.771       9.517       9.058       8.281       7.055       5.273       2.895      4.2779E-03
   9   10.000       9.911       9.771       9.517       9.058       8.281       7.055       5.273       2.895      4.2779E-03
  10   10.000       9.911       9.771       9.517       9.058       8.281       7.055       5.273       2.895      4.2779E-03
1
              HEAD IN LAYER   2 AT END OF TIME STEP  83 IN STRESS PERIOD    2
  ---------------------------------------------------------------------------

            1           2           3           4           5           6           7           8           9          10
 ........................................................................................................................
   1   10.000       9.908       9.764       9.504       9.038       8.254       7.023       5.241       2.871      7.9308E-03
   2   10.000       9.908       9.764       9.504       9.038       8.254       7.023       5.241       2.871      7.9308E-03
   3   10.000       9.908       9.764       9.504       9.038       8.254       7.023       5.241       2.871      7.9308E-03
   4   10.000       9.908       9.764       9.504       9.038       8.254       7.023       5.241       2.871      7.9308E-03
   5   10.000       9.908       9.764       9.504       9.038       8.254       7.023       5.241       2.871      7.9308E-03
   6   10.000       9.908       9.764       9.504       9.038       8.254       7.023       5.241       2.871      7.9308E-03
   7   10.000       9.908       9.764       9.504       9.038       8.254       7.023       5.241       2.871      7.9308E-03
   8   10.000       9.908       9.764       9.504       9.038       8.254       7.023       5.241       2.871      7.9308E-03
   9   10.000       9.908       9.764       9.504       9.038       8.254       7.023       5.241       2.871      7.9308E-03
  10   10.000       9.908       9.764       9.504       9.038       8.254       7.023       5.241       2.871      7.9308E-03
1
              HEAD IN LAYER   3 AT END OF TIME STEP  83 IN STRESS PERIOD    2
  ---------------------------------------------------------------------------

            1           2           3           4           5           6           7           8           9          10
 ........................................................................................................................
   1   10.000       9.905       9.759       9.495       9.025       8.235       7.000       5.216       2.851      8.4609E-03
   2   10.000       9.905       9.759       9.495       9.025       8.235       7.000       5.216       2.851      8.4609E-03
   3   10.000       9.905       9.759       9.495       9.025       8.235       7.000       5.216       2.851      8.4609E-03
   4   10.000       9.905       9.759       9.495       9.025       8.235       7.000       5.216       2.851      8.4609E-03
   5   10.000       9.905       9.759       9.495       9.025       8.235       7.000       5.216       2.851      8.4609E-03
   6   10.000       9.905       9.759       9.495       9.025       8.235       7.000       5.216       2.851      8.4609E-03
   7   10.000       9.905       9.759       9.495       9.025       8.235       7.000       5.216       2.851      8.4609E-03
   8   10.000       9.905       9.759       9.495       9.025       8.235       7.000       5.216       2.851      8.4609E-03
   9   10.000       9.905       9.759       9.495       9.025       8.235       7.000       5.216       2.851      8.4609E-03
  10   10.000       9.905       9.759       9.495       9.025       8.235       7.000       5.216       2.851      8.4609E-03
1
              HEAD IN LAYER   4 AT END OF TIME STEP  83 IN STRESS PERIOD    2
  ---------------------------------------------------------------------------

            1           2           3           4           5           6           7           8           9          10
 ........................................................................................................................
   1   10.000       9.904       9.756       9.491       9.018       8.225       6.988       5.204       2.841      8.4925E-03
   2   10.000       9.904       9.756       9.491       9.018       8.225       6.988       5.204       2.841      8.4925E-03
   3   10.000       9.904       9.756       9.491       9.018       8.225       6.988       5.204       2.841      8.4925E-03
   4   10.000       9.904       9.756       9.491       9.018       8.225       6.988       5.204       2.841      8.4925E-03
   5   10.000       9.904       9.756       9.491       9.018       8.225       6.988       5.204       2.841      8.4925E-03
   6   10.000       9.904       9.756       9.491       9.018       8.225       6.988       5.204       2.841      8.4925E-03
   7   10.000       9.904       9.756       9.491       9.018       8.225       6.988       5.204       2.841      8.4925E-03
   8   10.000       9.904       9.756       9.491       9.018       8.225       6.988       5.204       2.841      8.4925E-03
   9   10.000       9.904       9.756       9.491       9.018       8.225       6.988       5.204       2.841      8.4925E-03
  10   10.000       9.904       9.756       9.491       9.018       8.225       6.988       5.204       2.841      8.4925E-03

 HEAD WILL BE SAVED ON UNIT   51 AT END OF TIME STEP   83, STRESS PERIOD    2

 DRAWDOWN WILL BE SAVED ON UNIT   52 AT END OF TIME STEP   83, STRESS PERIOD    2
1
  VOLUMETRIC BUDGET FOR ENTIRE MODEL AT END OF TIME STEP   83, STRESS PERIOD   2
  ------------------------------------------------------------------------------

     CUMULATIVE VOLUMES      L**3       RATES FOR THIS TIME STEP      L**3/T
     ------------------                 ------------------------

           IN:                                      IN:
           ---                                      ---
             STORAGE =      295169.5625               STORAGE =        1402.5787
       CONSTANT HEAD =           0.0000         CONSTANT HEAD =           0.0000
               WELLS =           0.0000                 WELLS =           0.0000
     HEAD DEP BOUNDS =        1170.2585       HEAD DEP BOUNDS =          55.5139

            TOTAL IN =      296339.8125              TOTAL IN =        1458.0927

          OUT:                                     OUT:
          ----                                     ----
             STORAGE =           0.0000               STORAGE =           0.0000
       CONSTANT HEAD =           0.0000         CONSTANT HEAD =           0.0000
               WELLS =           0.0000                 WELLS =           0.0000
     HEAD DEP BOUNDS =      296340.6250       HEAD DEP BOUNDS =        1458.1040

           TOTAL OUT =      296340.6250             TOTAL OUT =        1458.1040

            IN - OUT =          -0.8125              IN - OUT =      -1.1353E-02

 PERCENT DISCREPANCY =          -0.00     PERCENT DISCREPANCY =          -0.00






         TIME SUMMARY AT END OF TIME STEP   83 IN STRESS PERIOD    2
                    SECONDS     MINUTES      HOURS       DAYS        YEARS
                    -----------------------------------------------------------
   TIME STEP LENGTH  86400.      1440.0      24.000      1.0000     2.73785E-03
 STRESS PERIOD TIME 7.17120E+06 1.19520E+05  1992.0      83.000     0.22724    
         TOTAL TIME 7.25760E+06 1.20960E+05  2016.0      84.000     0.22998    
1
 
 SOLVING FOR HEAD 

 OUTPUT CONTROL FOR STRESS PERIOD    2   TIME STEP   84
    SAVE HEAD FOR ALL LAYERS
    SAVE DRAWDOWN FOR ALL LAYERS
    SAVE BUDGET
    PRINT HEAD FOR ALL LAYERS
    PRINT BUDGET
 UBDSV1 SAVING "         STORAGE" ON UNIT  53 AT TIME STEP 84, STRESS PERIOD   2
 UBDSV2 SAVING "   CONSTANT HEAD" ON UNIT  53 AT TIME STEP 84, STRESS PERIOD   2
 UBDSV1 SAVING "FLOW RIGHT FACE " ON UNIT  53 AT TIME STEP 84, STRESS PERIOD   2
 UBDSV1 SAVING "FLOW FRONT FACE " ON UNIT  53 AT TIME STEP 84, STRESS PERIOD   2
 UBDSV1 SAVING "FLOW LOWER FACE " ON UNIT  53 AT TIME STEP 84, STRESS PERIOD   2
1
              HEAD IN LAYER   1 AT END OF TIME STEP  84 IN STRESS PERIOD    2
  ---------------------------------------------------------------------------

            1           2           3           4           5           6           7           8           9          10
 ........................................................................................................................
   1   10.000       9.908       9.765       9.505       9.040       8.257       7.028       5.247       2.878      4.2504E-03
   2   10.000       9.908       9.765       9.505       9.040       8.257       7.028       5.247       2.878      4.2504E-03
   3   10.000       9.908       9.765       9.505       9.040       8.257       7.028       5.247       2.878      4.2504E-03
   4   10.000       9.908       9.765       9.505       9.040       8.257       7.028       5.247       2.878      4.2504E-03
   5   10.000       9.908       9.765       9.505       9.040       8.257       7.028       5.247       2.878      4.2504E-03
   6   10.000       9.908       9.765       9.505       9.040       8.257       7.028       5.247       2.878      4.2504E-03
   7   10.000       9.908       9.765       9.505       9.040       8.257       7.028       5.247       2.878      4.2504E-03
   8   10.000       9.908       9.765       9.505       9.040       8.257       7.028       5.247       2.878      4.2504E-03
   9   10.000       9.908       9.765       9.505       9.040       8.257       7.028       5.247       2.878      4.2504E-03
  10   10.000       9.908       9.765       9.505       9.040       8.257       7.028       5.247       2.878      4.2504E-03
1
              HEAD IN LAYER   2 AT END OF TIME STEP  84 IN STRESS PERIOD    2
  ---------------------------------------------------------------------------

            1           2           3           4           5           6           7           8           9          10
 ........................................................................................................................
   1   10.000       9.905       9.757       9.492       9.021       8.230       6.996       5.215       2.855      7.8845E-03
   2   10.000       9.905       9.757       9.492       9.021       8.230       6.996       5.215       2.855      7.8845E-03
   3   10.000       9.905       9.757       9.492       9.021       8.230       6.996       5.215       2.855      7.8845E-03
   4   10.000       9.905       9.757       9.492       9.021       8.230       6.996       5.215       2.855      7.8845E-03
   5   10.000       9.905       9.757       9.492       9.021       8.230       6.996       5.215       2.855      7.8845E-03
   6   10.000       9.905       9.757       9.492       9.021       8.230       6.996       5.215       2.855      7.8845E-03
   7   10.000       9.905       9.757       9.492       9.021       8.230       6.996       5.215       2.855      7.8845E-03
   8   10.000       9.905       9.757       9.492       9.021       8.230       6.996       5.215       2.855      7.8845E-03
   9   10.000       9.905       9.757       9.492       9.021       8.230       6.996       5.215       2.855      7.8845E-03
  10   10.000       9.905       9.757       9.492       9.021       8.230       6.996       5.215       2.855      7.8845E-03
1
              HEAD IN LAYER   3 AT END OF TIME STEP  84 IN STRESS PERIOD    2
  ---------------------------------------------------------------------------

            1           2           3           4           5           6           7           8           9          10
 ........................................................................................................................
   1   10.000       9.902       9.752       9.483       9.007       8.211       6.973       5.191       2.835      8.4123E-03
   2   10.000       9.902       9.752       9.483       9.007       8.211       6.973       5.191       2.835      8.4123E-03
   3   10.000       9.902       9.752       9.483       9.007       8.211       6.973       5.191       2.835      8.4123E-03
   4   10.000       9.902       9.752       9.483       9.007       8.211       6.973       5.191       2.835      8.4123E-03
   5   10.000       9.902       9.752       9.483       9.007       8.211       6.973       5.191       2.835      8.4123E-03
   6   10.000       9.902       9.752       9.483       9.007       8.211       6.973       5.191       2.835      8.4123E-03
   7   10.000       9.902       9.752       9.483       9.007       8.211       6.973       5.191       2.835      8.4123E-03
   8   10.000       9.902       9.752       9.483       9.007       8.211       6.973       5.191       2.835      8.4123E-03
   9   10.000       9.902       9.752       9.483       9.007       8.211       6.973       5.191       2.835      8.4123E-03
  10   10.000       9.902       9.752       9.483       9.007       8.211       6.973       5.191       2.835      8.4123E-03
1
              HEAD IN LAYER   4 AT END OF TIME STEP  84 IN STRESS PERIOD    2
  ---------------------------------------------------------------------------

            1           2           3           4           5           6           7           8           9          10
 ........................................................................................................................
   1   10.000       9.901       9.750       9.479       9.000       8.202       6.961       5.179       2.824      8.4440E-03
   2   10.000       9.901       9.750       9.479       9.000       8.202       6.961       5.179       2.824      8.4440E-03
   3   10.000       9.901       9.750       9.479       9.000       8.202       6.961       5.179       2.824      8.4440E-03
   4   10.000       9.901       9.750       9.479       9.000       8.202       6.961       5.179       2.824      8.4440E-03
   5   10.000       9.901       9.750       9.479       9.000       8.202       6.961       5.179       2.824      8.4440E-03
   6   10.000       9.901       9.750       9.479       9.000       8.202       6.961       5.179       2.824      8.4440E-03
   7   10.000       9.901       9.750       9.479       9.000       8.202       6.961       5.179       2.824      8.4440E-03
   8   10.000       9.901       9.750       9.479       9.000       8.202       6.961       5.179       2.824      8.4440E-03
   9   10.000       9.901       9.750       9.479       9.000       8.202       6.961       5.179       2.824      8.4440E-03
  10   10.000       9.901       9.750       9.479       9.000       8.202       6.961       5.179       2.824      8.4440E-03

 HEAD WILL BE SAVED ON UNIT   51 AT END OF TIME STEP   84, STRESS PERIOD    2

 DRAWDOWN WILL BE SAVED ON UNIT   52 AT END OF TIME STEP   84, STRESS PERIOD    2
1
  VOLUMETRIC BUDGET FOR ENTIRE MODEL AT END OF TIME STEP   84, STRESS PERIOD   2
  ------------------------------------------------------------------------------

     CUMULATIVE VOLUMES      L**3       RATES FOR THIS TIME STEP      L**3/T
     ------------------                 ------------------------

           IN:                                      IN:
           ---                                      ---
             STORAGE =      296561.7812               STORAGE =        1392.2059
       CONSTANT HEAD =           0.0000         CONSTANT HEAD =           0.0000
               WELLS =           0.0000                 WELLS =           0.0000
     HEAD DEP BOUNDS =        1227.5873       HEAD DEP BOUNDS =          57.3288

            TOTAL IN =      297789.3750              TOTAL IN =        1449.5347

          OUT:                                     OUT:
          ----                                     ----
             STORAGE =           0.0000               STORAGE =           0.0000
       CONSTANT HEAD =           0.0000         CONSTANT HEAD =           0.0000
               WELLS =           0.0000                 WELLS =           0.0000
     HEAD DEP BOUNDS =      297790.1875       HEAD DEP BOUNDS =        1449.5618

           TOTAL OUT =      297790.1875             TOTAL OUT =        1449.5618

            IN - OUT =          -0.8125              IN - OUT =      -2.7100E-02

 PERCENT DISCREPANCY =          -0.00     PERCENT DISCREPANCY =          -0.00






         TIME SUMMARY AT END OF TIME STEP   84 IN STRESS PERIOD    2
                    SECONDS     MINUTES      HOURS       DAYS        YEARS
                    -----------------------------------------------------------
   TIME STEP LENGTH  86400.      1440.0      24.000      1.0000     2.73785E-03
 STRESS PERIOD TIME 7.25760E+06 1.20960E+05  2016.0      84.000     0.22998    
         TOTAL TIME 7.34400E+06 1.22400E+05  2040.0      85.000     0.23272    
1
 
 SOLVING FOR HEAD 

 OUTPUT CONTROL FOR STRESS PERIOD    2   TIME STEP   85
    SAVE HEAD FOR ALL LAYERS
    SAVE DRAWDOWN FOR ALL LAYERS
    SAVE BUDGET
    PRINT HEAD FOR ALL LAYERS
    PRINT BUDGET
 UBDSV1 SAVING "         STORAGE" ON UNIT  53 AT TIME STEP 85, STRESS PERIOD   2
 UBDSV2 SAVING "   CONSTANT HEAD" ON UNIT  53 AT TIME STEP 85, STRESS PERIOD   2
 UBDSV1 SAVING "FLOW RIGHT FACE " ON UNIT  53 AT TIME STEP 85, STRESS PERIOD   2
 UBDSV1 SAVING "FLOW FRONT FACE " ON UNIT  53 AT TIME STEP 85, STRESS PERIOD   2
 UBDSV1 SAVING "FLOW LOWER FACE " ON UNIT  53 AT TIME STEP 85, STRESS PERIOD   2
1
              HEAD IN LAYER   1 AT END OF TIME STEP  85 IN STRESS PERIOD    2
  ---------------------------------------------------------------------------

            1           2           3           4           5           6           7           8           9          10
 ........................................................................................................................
   1   10.000       9.905       9.758       9.493       9.023       8.233       7.001       5.221       2.862      4.2233E-03
   2   10.000       9.905       9.758       9.493       9.023       8.233       7.001       5.221       2.862      4.2233E-03
   3   10.000       9.905       9.758       9.493       9.023       8.233       7.001       5.221       2.862      4.2233E-03
   4   10.000       9.905       9.758       9.493       9.023       8.233       7.001       5.221       2.862      4.2233E-03
   5   10.000       9.905       9.758       9.493       9.023       8.233       7.001       5.221       2.862      4.2233E-03
   6   10.000       9.905       9.758       9.493       9.023       8.233       7.001       5.221       2.862      4.2233E-03
   7   10.000       9.905       9.758       9.493       9.023       8.233       7.001       5.221       2.862      4.2233E-03
   8   10.000       9.905       9.758       9.493       9.023       8.233       7.001       5.221       2.862      4.2233E-03
   9   10.000       9.905       9.758       9.493       9.023       8.233       7.001       5.221       2.862      4.2233E-03
  10   10.000       9.905       9.758       9.493       9.023       8.233       7.001       5.221       2.862      4.2233E-03
1
              HEAD IN LAYER   2 AT END OF TIME STEP  85 IN STRESS PERIOD    2
  ---------------------------------------------------------------------------

            1           2           3           4           5           6           7           8           9          10
 ........................................................................................................................
   1   10.000       9.901       9.750       9.480       9.003       8.207       6.969       5.190       2.838      7.8389E-03
   2   10.000       9.901       9.750       9.480       9.003       8.207       6.969       5.190       2.838      7.8389E-03
   3   10.000       9.901       9.750       9.480       9.003       8.207       6.969       5.190       2.838      7.8389E-03
   4   10.000       9.901       9.750       9.480       9.003       8.207       6.969       5.190       2.838      7.8389E-03
   5   10.000       9.901       9.750       9.480       9.003       8.207       6.969       5.190       2.838      7.8389E-03
   6   10.000       9.901       9.750       9.480       9.003       8.207       6.969       5.190       2.838      7.8389E-03
   7   10.000       9.901       9.750       9.480       9.003       8.207       6.969       5.190       2.838      7.8389E-03
   8   10.000       9.901       9.750       9.480       9.003       8.207       6.969       5.190       2.838      7.8389E-03
   9   10.000       9.901       9.750       9.480       9.003       8.207       6.969       5.190       2.838      7.8389E-03
  10   10.000       9.901       9.750       9.480       9.003       8.207       6.969       5.190       2.838      7.8389E-03
1
              HEAD IN LAYER   3 AT END OF TIME STEP  85 IN STRESS PERIOD    2
  ---------------------------------------------------------------------------

            1           2           3           4           5           6           7           8           9          10
 ........................................................................................................................
   1   10.000       9.899       9.745       9.472       8.990       8.188       6.946       5.166       2.818      8.3646E-03
   2   10.000       9.899       9.745       9.472       8.990       8.188       6.946       5.166       2.818      8.3646E-03
   3   10.000       9.899       9.745       9.472       8.990       8.188       6.946       5.166       2.818      8.3646E-03
   4   10.000       9.899       9.745       9.472       8.990       8.188       6.946       5.166       2.818      8.3646E-03
   5   10.000       9.899       9.745       9.472       8.990       8.188       6.946       5.166       2.818      8.3646E-03
   6   10.000       9.899       9.745       9.472       8.990       8.188       6.946       5.166       2.818      8.3646E-03
   7   10.000       9.899       9.745       9.472       8.990       8.188       6.946       5.166       2.818      8.3646E-03
   8   10.000       9.899       9.745       9.472       8.990       8.188       6.946       5.166       2.818      8.3646E-03
   9   10.000       9.899       9.745       9.472       8.990       8.188       6.946       5.166       2.818      8.3646E-03
  10   10.000       9.899       9.745       9.472       8.990       8.188       6.946       5.166       2.818      8.3646E-03
1
              HEAD IN LAYER   4 AT END OF TIME STEP  85 IN STRESS PERIOD    2
  ---------------------------------------------------------------------------

            1           2           3           4           5           6           7           8           9          10
 ........................................................................................................................
   1   10.000       9.898       9.743       9.467       8.983       8.179       6.935       5.154       2.809      8.3965E-03
   2   10.000       9.898       9.743       9.467       8.983       8.179       6.935       5.154       2.809      8.3965E-03
   3   10.000       9.898       9.743       9.467       8.983       8.179       6.935       5.154       2.809      8.3965E-03
   4   10.000       9.898       9.743       9.467       8.983       8.179       6.935       5.154       2.809      8.3965E-03
   5   10.000       9.898       9.743       9.467       8.983       8.179       6.935       5.154       2.809      8.3965E-03
   6   10.000       9.898       9.743       9.467       8.983       8.179       6.935       5.154       2.809      8.3965E-03
   7   10.000       9.898       9.743       9.467       8.983       8.179       6.935       5.154       2.809      8.3965E-03
   8   10.000       9.898       9.743       9.467       8.983       8.179       6.935       5.154       2.809      8.3965E-03
   9   10.000       9.898       9.743       9.467       8.983       8.179       6.935       5.154       2.809      8.3965E-03
  10   10.000       9.898       9.743       9.467       8.983       8.179       6.935       5.154       2.809      8.3965E-03

 HEAD WILL BE SAVED ON UNIT   51 AT END OF TIME STEP   85, STRESS PERIOD    2

 DRAWDOWN WILL BE SAVED ON UNIT   52 AT END OF TIME STEP   85, STRESS PERIOD    2
1
  VOLUMETRIC BUDGET FOR ENTIRE MODEL AT END OF TIME STEP   85, STRESS PERIOD   2
  ------------------------------------------------------------------------------

     CUMULATIVE VOLUMES      L**3       RATES FOR THIS TIME STEP      L**3/T
     ------------------                 ------------------------

           IN:                                      IN:
           ---                                      ---
             STORAGE =      297943.7812               STORAGE =        1382.0059
       CONSTANT HEAD =           0.0000         CONSTANT HEAD =           0.0000
               WELLS =           0.0000                 WELLS =           0.0000
     HEAD DEP BOUNDS =        1286.7527       HEAD DEP BOUNDS =          59.1654

            TOTAL IN =      299230.5312              TOTAL IN =        1441.1713

          OUT:                                     OUT:
          ----                                     ----
             STORAGE =           0.0000               STORAGE =           0.0000
       CONSTANT HEAD =           0.0000         CONSTANT HEAD =           0.0000
               WELLS =           0.0000                 WELLS =           0.0000
     HEAD DEP BOUNDS =      299231.3438       HEAD DEP BOUNDS =        1441.1635

           TOTAL OUT =      299231.3438             TOTAL OUT =        1441.1635

            IN - OUT =          -0.8125              IN - OUT =       7.8125E-03

 PERCENT DISCREPANCY =          -0.00     PERCENT DISCREPANCY =           0.00






         TIME SUMMARY AT END OF TIME STEP   85 IN STRESS PERIOD    2
                    SECONDS     MINUTES      HOURS       DAYS        YEARS
                    -----------------------------------------------------------
   TIME STEP LENGTH  86400.      1440.0      24.000      1.0000     2.73785E-03
 STRESS PERIOD TIME 7.34400E+06 1.22400E+05  2040.0      85.000     0.23272    
         TOTAL TIME 7.43040E+06 1.23840E+05  2064.0      86.000     0.23546    
1
 
 SOLVING FOR HEAD 

 OUTPUT CONTROL FOR STRESS PERIOD    2   TIME STEP   86
    SAVE HEAD FOR ALL LAYERS
    SAVE DRAWDOWN FOR ALL LAYERS
    SAVE BUDGET
    PRINT HEAD FOR ALL LAYERS
    PRINT BUDGET
 UBDSV1 SAVING "         STORAGE" ON UNIT  53 AT TIME STEP 86, STRESS PERIOD   2
 UBDSV2 SAVING "   CONSTANT HEAD" ON UNIT  53 AT TIME STEP 86, STRESS PERIOD   2
 UBDSV1 SAVING "FLOW RIGHT FACE " ON UNIT  53 AT TIME STEP 86, STRESS PERIOD   2
 UBDSV1 SAVING "FLOW FRONT FACE " ON UNIT  53 AT TIME STEP 86, STRESS PERIOD   2
 UBDSV1 SAVING "FLOW LOWER FACE " ON UNIT  53 AT TIME STEP 86, STRESS PERIOD   2
1
              HEAD IN LAYER   1 AT END OF TIME STEP  86 IN STRESS PERIOD    2
  ---------------------------------------------------------------------------

            1           2           3           4           5           6           7           8           9          10
 ........................................................................................................................
   1   10.000       9.902       9.751       9.482       9.005       8.210       6.974       5.196       2.845      4.1965E-03
   2   10.000       9.902       9.751       9.482       9.005       8.210       6.974       5.196       2.845      4.1965E-03
   3   10.000       9.902       9.751       9.482       9.005       8.210       6.974       5.196       2.845      4.1965E-03
   4   10.000       9.902       9.751       9.482       9.005       8.210       6.974       5.196       2.845      4.1965E-03
   5   10.000       9.902       9.751       9.482       9.005       8.210       6.974       5.196       2.845      4.1965E-03
   6   10.000       9.902       9.751       9.482       9.005       8.210       6.974       5.196       2.845      4.1965E-03
   7   10.000       9.902       9.751       9.482       9.005       8.210       6.974       5.196       2.845      4.1965E-03
   8   10.000       9.902       9.751       9.482       9.005       8.210       6.974       5.196       2.845      4.1965E-03
   9   10.000       9.902       9.751       9.482       9.005       8.210       6.974       5.196       2.845      4.1965E-03
  10   10.000       9.902       9.751       9.482       9.005       8.210       6.974       5.196       2.845      4.1965E-03
1
              HEAD IN LAYER   2 AT END OF TIME STEP  86 IN STRESS PERIOD    2
  ---------------------------------------------------------------------------

            1           2           3           4           5           6           7           8           9          10
 ........................................................................................................................
   1   10.000       9.898       9.743       9.469       8.986       8.184       6.943       5.165       2.822      7.7941E-03
   2   10.000       9.898       9.743       9.469       8.986       8.184       6.943       5.165       2.822      7.7941E-03
   3   10.000       9.898       9.743       9.469       8.986       8.184       6.943       5.165       2.822      7.7941E-03
   4   10.000       9.898       9.743       9.469       8.986       8.184       6.943       5.165       2.822      7.7941E-03
   5   10.000       9.898       9.743       9.469       8.986       8.184       6.943       5.165       2.822      7.7941E-03
   6   10.000       9.898       9.743       9.469       8.986       8.184       6.943       5.165       2.822      7.7941E-03
   7   10.000       9.898       9.743       9.469       8.986       8.184       6.943       5.165       2.822      7.7941E-03
   8   10.000       9.898       9.743       9.469       8.986       8.184       6.943       5.165       2.822      7.7941E-03
   9   10.000       9.898       9.743       9.469       8.986       8.184       6.943       5.165       2.822      7.7941E-03
  10   10.000       9.898       9.743       9.469       8.986       8.184       6.943       5.165       2.822      7.7941E-03
1
              HEAD IN LAYER   3 AT END OF TIME STEP  86 IN STRESS PERIOD    2
  ---------------------------------------------------------------------------

            1           2           3           4           5           6           7           8           9          10
 ........................................................................................................................
   1   10.000       9.896       9.738       9.460       8.972       8.165       6.920       5.141       2.803      8.3177E-03
   2   10.000       9.896       9.738       9.460       8.972       8.165       6.920       5.141       2.803      8.3177E-03
   3   10.000       9.896       9.738       9.460       8.972       8.165       6.920       5.141       2.803      8.3177E-03
   4   10.000       9.896       9.738       9.460       8.972       8.165       6.920       5.141       2.803      8.3177E-03
   5   10.000       9.896       9.738       9.460       8.972       8.165       6.920       5.141       2.803      8.3177E-03
   6   10.000       9.896       9.738       9.460       8.972       8.165       6.920       5.141       2.803      8.3177E-03
   7   10.000       9.896       9.738       9.460       8.972       8.165       6.920       5.141       2.803      8.3177E-03
   8   10.000       9.896       9.738       9.460       8.972       8.165       6.920       5.141       2.803      8.3177E-03
   9   10.000       9.896       9.738       9.460       8.972       8.165       6.920       5.141       2.803      8.3177E-03
  10   10.000       9.896       9.738       9.460       8.972       8.165       6.920       5.141       2.803      8.3177E-03
1
              HEAD IN LAYER   4 AT END OF TIME STEP  86 IN STRESS PERIOD    2
  ---------------------------------------------------------------------------

            1           2           3           4           5           6           7           8           9          10
 ........................................................................................................................
   1   10.000       9.895       9.736       9.455       8.965       8.156       6.909       5.129       2.793      8.3496E-03
   2   10.000       9.895       9.736       9.455       8.965       8.156       6.909       5.129       2.793      8.3496E-03
   3   10.000       9.895       9.736       9.455       8.965       8.156       6.909       5.129       2.793      8.3496E-03
   4   10.000       9.895       9.736       9.455       8.965       8.156       6.909       5.129       2.793      8.3496E-03
   5   10.000       9.895       9.736       9.455       8.965       8.156       6.909       5.129       2.793      8.3496E-03
   6   10.000       9.895       9.736       9.455       8.965       8.156       6.909       5.129       2.793      8.3496E-03
   7   10.000       9.895       9.736       9.455       8.965       8.156       6.909       5.129       2.793      8.3496E-03
   8   10.000       9.895       9.736       9.455       8.965       8.156       6.909       5.129       2.793      8.3496E-03
   9   10.000       9.895       9.736       9.455       8.965       8.156       6.909       5.129       2.793      8.3496E-03
  10   10.000       9.895       9.736       9.455       8.965       8.156       6.909       5.129       2.793      8.3496E-03

 HEAD WILL BE SAVED ON UNIT   51 AT END OF TIME STEP   86, STRESS PERIOD    2

 DRAWDOWN WILL BE SAVED ON UNIT   52 AT END OF TIME STEP   86, STRESS PERIOD    2
1
  VOLUMETRIC BUDGET FOR ENTIRE MODEL AT END OF TIME STEP   86, STRESS PERIOD   2
  ------------------------------------------------------------------------------

     CUMULATIVE VOLUMES      L**3       RATES FOR THIS TIME STEP      L**3/T
     ------------------                 ------------------------

           IN:                                      IN:
           ---                                      ---
             STORAGE =      299315.6562               STORAGE =        1371.8729
       CONSTANT HEAD =           0.0000         CONSTANT HEAD =           0.0000
               WELLS =           0.0000                 WELLS =           0.0000
     HEAD DEP BOUNDS =        1347.7759       HEAD DEP BOUNDS =          61.0232

            TOTAL IN =      300663.4375              TOTAL IN =        1432.8961

          OUT:                                     OUT:
          ----                                     ----
             STORAGE =           0.0000               STORAGE =           0.0000
       CONSTANT HEAD =           0.0000         CONSTANT HEAD =           0.0000
               WELLS =           0.0000                 WELLS =           0.0000
     HEAD DEP BOUNDS =      300664.2500       HEAD DEP BOUNDS =        1432.8948

           TOTAL OUT =      300664.2500             TOTAL OUT =        1432.8948

            IN - OUT =          -0.8125              IN - OUT =       1.3428E-03

 PERCENT DISCREPANCY =          -0.00     PERCENT DISCREPANCY =           0.00






         TIME SUMMARY AT END OF TIME STEP   86 IN STRESS PERIOD    2
                    SECONDS     MINUTES      HOURS       DAYS        YEARS
                    -----------------------------------------------------------
   TIME STEP LENGTH  86400.      1440.0      24.000      1.0000     2.73785E-03
 STRESS PERIOD TIME 7.43040E+06 1.23840E+05  2064.0      86.000     0.23546    
         TOTAL TIME 7.51680E+06 1.25280E+05  2088.0      87.000     0.23819    
1
 
 SOLVING FOR HEAD 

 OUTPUT CONTROL FOR STRESS PERIOD    2   TIME STEP   87
    SAVE HEAD FOR ALL LAYERS
    SAVE DRAWDOWN FOR ALL LAYERS
    SAVE BUDGET
    PRINT HEAD FOR ALL LAYERS
    PRINT BUDGET
 UBDSV1 SAVING "         STORAGE" ON UNIT  53 AT TIME STEP 87, STRESS PERIOD   2
 UBDSV2 SAVING "   CONSTANT HEAD" ON UNIT  53 AT TIME STEP 87, STRESS PERIOD   2
 UBDSV1 SAVING "FLOW RIGHT FACE " ON UNIT  53 AT TIME STEP 87, STRESS PERIOD   2
 UBDSV1 SAVING "FLOW FRONT FACE " ON UNIT  53 AT TIME STEP 87, STRESS PERIOD   2
 UBDSV1 SAVING "FLOW LOWER FACE " ON UNIT  53 AT TIME STEP 87, STRESS PERIOD   2
1
              HEAD IN LAYER   1 AT END OF TIME STEP  87 IN STRESS PERIOD    2
  ---------------------------------------------------------------------------

            1           2           3           4           5           6           7           8           9          10
 ........................................................................................................................
   1   10.000       9.899       9.744       9.470       8.988       8.187       6.947       5.171       2.829      4.1704E-03
   2   10.000       9.899       9.744       9.470       8.988       8.187       6.947       5.171       2.829      4.1704E-03
   3   10.000       9.899       9.744       9.470       8.988       8.187       6.947       5.171       2.829      4.1704E-03
   4   10.000       9.899       9.744       9.470       8.988       8.187       6.947       5.171       2.829      4.1704E-03
   5   10.000       9.899       9.744       9.470       8.988       8.187       6.947       5.171       2.829      4.1704E-03
   6   10.000       9.899       9.744       9.470       8.988       8.187       6.947       5.171       2.829      4.1704E-03
   7   10.000       9.899       9.744       9.470       8.988       8.187       6.947       5.171       2.829      4.1704E-03
   8   10.000       9.899       9.744       9.470       8.988       8.187       6.947       5.171       2.829      4.1704E-03
   9   10.000       9.899       9.744       9.470       8.988       8.187       6.947       5.171       2.829      4.1704E-03
  10   10.000       9.899       9.744       9.470       8.988       8.187       6.947       5.171       2.829      4.1704E-03
1
              HEAD IN LAYER   2 AT END OF TIME STEP  87 IN STRESS PERIOD    2
  ---------------------------------------------------------------------------

            1           2           3           4           5           6           7           8           9          10
 ........................................................................................................................
   1   10.000       9.895       9.736       9.457       8.968       8.161       6.917       5.141       2.806      7.7501E-03
   2   10.000       9.895       9.736       9.457       8.968       8.161       6.917       5.141       2.806      7.7501E-03
   3   10.000       9.895       9.736       9.457       8.968       8.161       6.917       5.141       2.806      7.7501E-03
   4   10.000       9.895       9.736       9.457       8.968       8.161       6.917       5.141       2.806      7.7501E-03
   5   10.000       9.895       9.736       9.457       8.968       8.161       6.917       5.141       2.806      7.7501E-03
   6   10.000       9.895       9.736       9.457       8.968       8.161       6.917       5.141       2.806      7.7501E-03
   7   10.000       9.895       9.736       9.457       8.968       8.161       6.917       5.141       2.806      7.7501E-03
   8   10.000       9.895       9.736       9.457       8.968       8.161       6.917       5.141       2.806      7.7501E-03
   9   10.000       9.895       9.736       9.457       8.968       8.161       6.917       5.141       2.806      7.7501E-03
  10   10.000       9.895       9.736       9.457       8.968       8.161       6.917       5.141       2.806      7.7501E-03
1
              HEAD IN LAYER   3 AT END OF TIME STEP  87 IN STRESS PERIOD    2
  ---------------------------------------------------------------------------

            1           2           3           4           5           6           7           8           9          10
 ........................................................................................................................
   1   10.000       9.893       9.731       9.448       8.954       8.142       6.894       5.117       2.787      8.2715E-03
   2   10.000       9.893       9.731       9.448       8.954       8.142       6.894       5.117       2.787      8.2715E-03
   3   10.000       9.893       9.731       9.448       8.954       8.142       6.894       5.117       2.787      8.2715E-03
   4   10.000       9.893       9.731       9.448       8.954       8.142       6.894       5.117       2.787      8.2715E-03
   5   10.000       9.893       9.731       9.448       8.954       8.142       6.894       5.117       2.787      8.2715E-03
   6   10.000       9.893       9.731       9.448       8.954       8.142       6.894       5.117       2.787      8.2715E-03
   7   10.000       9.893       9.731       9.448       8.954       8.142       6.894       5.117       2.787      8.2715E-03
   8   10.000       9.893       9.731       9.448       8.954       8.142       6.894       5.117       2.787      8.2715E-03
   9   10.000       9.893       9.731       9.448       8.954       8.142       6.894       5.117       2.787      8.2715E-03
  10   10.000       9.893       9.731       9.448       8.954       8.142       6.894       5.117       2.787      8.2715E-03
1
              HEAD IN LAYER   4 AT END OF TIME STEP  87 IN STRESS PERIOD    2
  ---------------------------------------------------------------------------

            1           2           3           4           5           6           7           8           9          10
 ........................................................................................................................
   1   10.000       9.892       9.729       9.443       8.948       8.133       6.883       5.105       2.778      8.3036E-03
   2   10.000       9.892       9.729       9.443       8.948       8.133       6.883       5.105       2.778      8.3036E-03
   3   10.000       9.892       9.729       9.443       8.948       8.133       6.883       5.105       2.778      8.3036E-03
   4   10.000       9.892       9.729       9.443       8.948       8.133       6.883       5.105       2.778      8.3036E-03
   5   10.000       9.892       9.729       9.443       8.948       8.133       6.883       5.105       2.778      8.3036E-03
   6   10.000       9.892       9.729       9.443       8.948       8.133       6.883       5.105       2.778      8.3036E-03
   7   10.000       9.892       9.729       9.443       8.948       8.133       6.883       5.105       2.778      8.3036E-03
   8   10.000       9.892       9.729       9.443       8.948       8.133       6.883       5.105       2.778      8.3036E-03
   9   10.000       9.892       9.729       9.443       8.948       8.133       6.883       5.105       2.778      8.3036E-03
  10   10.000       9.892       9.729       9.443       8.948       8.133       6.883       5.105       2.778      8.3036E-03

 HEAD WILL BE SAVED ON UNIT   51 AT END OF TIME STEP   87, STRESS PERIOD    2

 DRAWDOWN WILL BE SAVED ON UNIT   52 AT END OF TIME STEP   87, STRESS PERIOD    2
1
  VOLUMETRIC BUDGET FOR ENTIRE MODEL AT END OF TIME STEP   87, STRESS PERIOD   2
  ------------------------------------------------------------------------------

     CUMULATIVE VOLUMES      L**3       RATES FOR THIS TIME STEP      L**3/T
     ------------------                 ------------------------

           IN:                                      IN:
           ---                                      ---
             STORAGE =      300677.5000               STORAGE =        1361.8464
       CONSTANT HEAD =           0.0000         CONSTANT HEAD =           0.0000
               WELLS =           0.0000                 WELLS =           0.0000
     HEAD DEP BOUNDS =        1410.6774       HEAD DEP BOUNDS =          62.9015

            TOTAL IN =      302088.1875              TOTAL IN =        1424.7479

          OUT:                                     OUT:
          ----                                     ----
             STORAGE =           0.0000               STORAGE =           0.0000
       CONSTANT HEAD =           0.0000         CONSTANT HEAD =           0.0000
               WELLS =           0.0000                 WELLS =           0.0000
     HEAD DEP BOUNDS =      302089.0312       HEAD DEP BOUNDS =        1424.7786

           TOTAL OUT =      302089.0312             TOTAL OUT =        1424.7786

            IN - OUT =          -0.8438              IN - OUT =      -3.0640E-02

 PERCENT DISCREPANCY =          -0.00     PERCENT DISCREPANCY =          -0.00






         TIME SUMMARY AT END OF TIME STEP   87 IN STRESS PERIOD    2
                    SECONDS     MINUTES      HOURS       DAYS        YEARS
                    -----------------------------------------------------------
   TIME STEP LENGTH  86400.      1440.0      24.000      1.0000     2.73785E-03
 STRESS PERIOD TIME 7.51680E+06 1.25280E+05  2088.0      87.000     0.23819    
         TOTAL TIME 7.60320E+06 1.26720E+05  2112.0      88.000     0.24093    
1
 
 SOLVING FOR HEAD 

 OUTPUT CONTROL FOR STRESS PERIOD    2   TIME STEP   88
    SAVE HEAD FOR ALL LAYERS
    SAVE DRAWDOWN FOR ALL LAYERS
    SAVE BUDGET
    PRINT HEAD FOR ALL LAYERS
    PRINT BUDGET
 UBDSV1 SAVING "         STORAGE" ON UNIT  53 AT TIME STEP 88, STRESS PERIOD   2
 UBDSV2 SAVING "   CONSTANT HEAD" ON UNIT  53 AT TIME STEP 88, STRESS PERIOD   2
 UBDSV1 SAVING "FLOW RIGHT FACE " ON UNIT  53 AT TIME STEP 88, STRESS PERIOD   2
 UBDSV1 SAVING "FLOW FRONT FACE " ON UNIT  53 AT TIME STEP 88, STRESS PERIOD   2
 UBDSV1 SAVING "FLOW LOWER FACE " ON UNIT  53 AT TIME STEP 88, STRESS PERIOD   2
1
              HEAD IN LAYER   1 AT END OF TIME STEP  88 IN STRESS PERIOD    2
  ---------------------------------------------------------------------------

            1           2           3           4           5           6           7           8           9          10
 ........................................................................................................................
   1   10.000       9.896       9.737       9.458       8.970       8.164       6.921       5.146       2.813      4.1448E-03
   2   10.000       9.896       9.737       9.458       8.970       8.164       6.921       5.146       2.813      4.1448E-03
   3   10.000       9.896       9.737       9.458       8.970       8.164       6.921       5.146       2.813      4.1448E-03
   4   10.000       9.896       9.737       9.458       8.970       8.164       6.921       5.146       2.813      4.1448E-03
   5   10.000       9.896       9.737       9.458       8.970       8.164       6.921       5.146       2.813      4.1448E-03
   6   10.000       9.896       9.737       9.458       8.970       8.164       6.921       5.146       2.813      4.1448E-03
   7   10.000       9.896       9.737       9.458       8.970       8.164       6.921       5.146       2.813      4.1448E-03
   8   10.000       9.896       9.737       9.458       8.970       8.164       6.921       5.146       2.813      4.1448E-03
   9   10.000       9.896       9.737       9.458       8.970       8.164       6.921       5.146       2.813      4.1448E-03
  10   10.000       9.896       9.737       9.458       8.970       8.164       6.921       5.146       2.813      4.1448E-03
1
              HEAD IN LAYER   2 AT END OF TIME STEP  88 IN STRESS PERIOD    2
  ---------------------------------------------------------------------------

            1           2           3           4           5           6           7           8           9          10
 ........................................................................................................................
   1   10.000       9.892       9.730       9.445       8.950       8.138       6.890       5.116       2.791      7.7068E-03
   2   10.000       9.892       9.730       9.445       8.950       8.138       6.890       5.116       2.791      7.7068E-03
   3   10.000       9.892       9.730       9.445       8.950       8.138       6.890       5.116       2.791      7.7068E-03
   4   10.000       9.892       9.730       9.445       8.950       8.138       6.890       5.116       2.791      7.7068E-03
   5   10.000       9.892       9.730       9.445       8.950       8.138       6.890       5.116       2.791      7.7068E-03
   6   10.000       9.892       9.730       9.445       8.950       8.138       6.890       5.116       2.791      7.7068E-03
   7   10.000       9.892       9.730       9.445       8.950       8.138       6.890       5.116       2.791      7.7068E-03
   8   10.000       9.892       9.730       9.445       8.950       8.138       6.890       5.116       2.791      7.7068E-03
   9   10.000       9.892       9.730       9.445       8.950       8.138       6.890       5.116       2.791      7.7068E-03
  10   10.000       9.892       9.730       9.445       8.950       8.138       6.890       5.116       2.791      7.7068E-03
1
              HEAD IN LAYER   3 AT END OF TIME STEP  88 IN STRESS PERIOD    2
  ---------------------------------------------------------------------------

            1           2           3           4           5           6           7           8           9          10
 ........................................................................................................................
   1   10.000       9.890       9.724       9.436       8.937       8.119       6.868       5.093       2.772      8.2261E-03
   2   10.000       9.890       9.724       9.436       8.937       8.119       6.868       5.093       2.772      8.2261E-03
   3   10.000       9.890       9.724       9.436       8.937       8.119       6.868       5.093       2.772      8.2261E-03
   4   10.000       9.890       9.724       9.436       8.937       8.119       6.868       5.093       2.772      8.2261E-03
   5   10.000       9.890       9.724       9.436       8.937       8.119       6.868       5.093       2.772      8.2261E-03
   6   10.000       9.890       9.724       9.436       8.937       8.119       6.868       5.093       2.772      8.2261E-03
   7   10.000       9.890       9.724       9.436       8.937       8.119       6.868       5.093       2.772      8.2261E-03
   8   10.000       9.890       9.724       9.436       8.937       8.119       6.868       5.093       2.772      8.2261E-03
   9   10.000       9.890       9.724       9.436       8.937       8.119       6.868       5.093       2.772      8.2261E-03
  10   10.000       9.890       9.724       9.436       8.937       8.119       6.868       5.093       2.772      8.2261E-03
1
              HEAD IN LAYER   4 AT END OF TIME STEP  88 IN STRESS PERIOD    2
  ---------------------------------------------------------------------------

            1           2           3           4           5           6           7           8           9          10
 ........................................................................................................................
   1   10.000       9.889       9.722       9.431       8.930       8.110       6.857       5.081       2.762      8.2583E-03
   2   10.000       9.889       9.722       9.431       8.930       8.110       6.857       5.081       2.762      8.2583E-03
   3   10.000       9.889       9.722       9.431       8.930       8.110       6.857       5.081       2.762      8.2583E-03
   4   10.000       9.889       9.722       9.431       8.930       8.110       6.857       5.081       2.762      8.2583E-03
   5   10.000       9.889       9.722       9.431       8.930       8.110       6.857       5.081       2.762      8.2583E-03
   6   10.000       9.889       9.722       9.431       8.930       8.110       6.857       5.081       2.762      8.2583E-03
   7   10.000       9.889       9.722       9.431       8.930       8.110       6.857       5.081       2.762      8.2583E-03
   8   10.000       9.889       9.722       9.431       8.930       8.110       6.857       5.081       2.762      8.2583E-03
   9   10.000       9.889       9.722       9.431       8.930       8.110       6.857       5.081       2.762      8.2583E-03
  10   10.000       9.889       9.722       9.431       8.930       8.110       6.857       5.081       2.762      8.2583E-03

 HEAD WILL BE SAVED ON UNIT   51 AT END OF TIME STEP   88, STRESS PERIOD    2

 DRAWDOWN WILL BE SAVED ON UNIT   52 AT END OF TIME STEP   88, STRESS PERIOD    2
1
  VOLUMETRIC BUDGET FOR ENTIRE MODEL AT END OF TIME STEP   88, STRESS PERIOD   2
  ------------------------------------------------------------------------------

     CUMULATIVE VOLUMES      L**3       RATES FOR THIS TIME STEP      L**3/T
     ------------------                 ------------------------

           IN:                                      IN:
           ---                                      ---
             STORAGE =      302029.5000               STORAGE =        1351.9844
       CONSTANT HEAD =           0.0000         CONSTANT HEAD =           0.0000
               WELLS =           0.0000                 WELLS =           0.0000
     HEAD DEP BOUNDS =        1475.4774       HEAD DEP BOUNDS =          64.8001

            TOTAL IN =      303504.9688              TOTAL IN =        1416.7844

          OUT:                                     OUT:
          ----                                     ----
             STORAGE =           0.0000               STORAGE =           0.0000
       CONSTANT HEAD =           0.0000         CONSTANT HEAD =           0.0000
               WELLS =           0.0000                 WELLS =           0.0000
     HEAD DEP BOUNDS =      303505.8438       HEAD DEP BOUNDS =        1416.8013

           TOTAL OUT =      303505.8438             TOTAL OUT =        1416.8013

            IN - OUT =          -0.8750              IN - OUT =      -1.6846E-02

 PERCENT DISCREPANCY =          -0.00     PERCENT DISCREPANCY =          -0.00






         TIME SUMMARY AT END OF TIME STEP   88 IN STRESS PERIOD    2
                    SECONDS     MINUTES      HOURS       DAYS        YEARS
                    -----------------------------------------------------------
   TIME STEP LENGTH  86400.      1440.0      24.000      1.0000     2.73785E-03
 STRESS PERIOD TIME 7.60320E+06 1.26720E+05  2112.0      88.000     0.24093    
         TOTAL TIME 7.68960E+06 1.28160E+05  2136.0      89.000     0.24367    
1
 
 SOLVING FOR HEAD 

 OUTPUT CONTROL FOR STRESS PERIOD    2   TIME STEP   89
    SAVE HEAD FOR ALL LAYERS
    SAVE DRAWDOWN FOR ALL LAYERS
    SAVE BUDGET
    PRINT HEAD FOR ALL LAYERS
    PRINT BUDGET
 UBDSV1 SAVING "         STORAGE" ON UNIT  53 AT TIME STEP 89, STRESS PERIOD   2
 UBDSV2 SAVING "   CONSTANT HEAD" ON UNIT  53 AT TIME STEP 89, STRESS PERIOD   2
 UBDSV1 SAVING "FLOW RIGHT FACE " ON UNIT  53 AT TIME STEP 89, STRESS PERIOD   2
 UBDSV1 SAVING "FLOW FRONT FACE " ON UNIT  53 AT TIME STEP 89, STRESS PERIOD   2
 UBDSV1 SAVING "FLOW LOWER FACE " ON UNIT  53 AT TIME STEP 89, STRESS PERIOD   2
1
              HEAD IN LAYER   1 AT END OF TIME STEP  89 IN STRESS PERIOD    2
  ---------------------------------------------------------------------------

            1           2           3           4           5           6           7           8           9          10
 ........................................................................................................................
   1   10.000       9.892       9.730       9.446       8.953       8.141       6.895       5.122       2.797      4.1194E-03
   2   10.000       9.892       9.730       9.446       8.953       8.141       6.895       5.122       2.797      4.1194E-03
   3   10.000       9.892       9.730       9.446       8.953       8.141       6.895       5.122       2.797      4.1194E-03
   4   10.000       9.892       9.730       9.446       8.953       8.141       6.895       5.122       2.797      4.1194E-03
   5   10.000       9.892       9.730       9.446       8.953       8.141       6.895       5.122       2.797      4.1194E-03
   6   10.000       9.892       9.730       9.446       8.953       8.141       6.895       5.122       2.797      4.1194E-03
   7   10.000       9.892       9.730       9.446       8.953       8.141       6.895       5.122       2.797      4.1194E-03
   8   10.000       9.892       9.730       9.446       8.953       8.141       6.895       5.122       2.797      4.1194E-03
   9   10.000       9.892       9.730       9.446       8.953       8.141       6.895       5.122       2.797      4.1194E-03
  10   10.000       9.892       9.730       9.446       8.953       8.141       6.895       5.122       2.797      4.1194E-03
1
              HEAD IN LAYER   2 AT END OF TIME STEP  89 IN STRESS PERIOD    2
  ---------------------------------------------------------------------------

            1           2           3           4           5           6           7           8           9          10
 ........................................................................................................................
   1   10.000       9.889       9.722       9.433       8.933       8.115       6.865       5.092       2.776      7.6642E-03
   2   10.000       9.889       9.722       9.433       8.933       8.115       6.865       5.092       2.776      7.6642E-03
   3   10.000       9.889       9.722       9.433       8.933       8.115       6.865       5.092       2.776      7.6642E-03
   4   10.000       9.889       9.722       9.433       8.933       8.115       6.865       5.092       2.776      7.6642E-03
   5   10.000       9.889       9.722       9.433       8.933       8.115       6.865       5.092       2.776      7.6642E-03
   6   10.000       9.889       9.722       9.433       8.933       8.115       6.865       5.092       2.776      7.6642E-03
   7   10.000       9.889       9.722       9.433       8.933       8.115       6.865       5.092       2.776      7.6642E-03
   8   10.000       9.889       9.722       9.433       8.933       8.115       6.865       5.092       2.776      7.6642E-03
   9   10.000       9.889       9.722       9.433       8.933       8.115       6.865       5.092       2.776      7.6642E-03
  10   10.000       9.889       9.722       9.433       8.933       8.115       6.865       5.092       2.776      7.6642E-03
1
              HEAD IN LAYER   3 AT END OF TIME STEP  89 IN STRESS PERIOD    2
  ---------------------------------------------------------------------------

            1           2           3           4           5           6           7           8           9          10
 ........................................................................................................................
   1   10.000       9.886       9.717       9.424       8.919       8.096       6.843       5.069       2.757      8.1815E-03
   2   10.000       9.886       9.717       9.424       8.919       8.096       6.843       5.069       2.757      8.1815E-03
   3   10.000       9.886       9.717       9.424       8.919       8.096       6.843       5.069       2.757      8.1815E-03
   4   10.000       9.886       9.717       9.424       8.919       8.096       6.843       5.069       2.757      8.1815E-03
   5   10.000       9.886       9.717       9.424       8.919       8.096       6.843       5.069       2.757      8.1815E-03
   6   10.000       9.886       9.717       9.424       8.919       8.096       6.843       5.069       2.757      8.1815E-03
   7   10.000       9.886       9.717       9.424       8.919       8.096       6.843       5.069       2.757      8.1815E-03
   8   10.000       9.886       9.717       9.424       8.919       8.096       6.843       5.069       2.757      8.1815E-03
   9   10.000       9.886       9.717       9.424       8.919       8.096       6.843       5.069       2.757      8.1815E-03
  10   10.000       9.886       9.717       9.424       8.919       8.096       6.843       5.069       2.757      8.1815E-03
1
              HEAD IN LAYER   4 AT END OF TIME STEP  89 IN STRESS PERIOD    2
  ---------------------------------------------------------------------------

            1           2           3           4           5           6           7           8           9          10
 ........................................................................................................................
   1   10.000       9.885       9.715       9.420       8.913       8.087       6.831       5.058       2.748      8.2138E-03
   2   10.000       9.885       9.715       9.420       8.913       8.087       6.831       5.058       2.748      8.2138E-03
   3   10.000       9.885       9.715       9.420       8.913       8.087       6.831       5.058       2.748      8.2138E-03
   4   10.000       9.885       9.715       9.420       8.913       8.087       6.831       5.058       2.748      8.2138E-03
   5   10.000       9.885       9.715       9.420       8.913       8.087       6.831       5.058       2.748      8.2138E-03
   6   10.000       9.885       9.715       9.420       8.913       8.087       6.831       5.058       2.748      8.2138E-03
   7   10.000       9.885       9.715       9.420       8.913       8.087       6.831       5.058       2.748      8.2138E-03
   8   10.000       9.885       9.715       9.420       8.913       8.087       6.831       5.058       2.748      8.2138E-03
   9   10.000       9.885       9.715       9.420       8.913       8.087       6.831       5.058       2.748      8.2138E-03
  10   10.000       9.885       9.715       9.420       8.913       8.087       6.831       5.058       2.748      8.2138E-03

 HEAD WILL BE SAVED ON UNIT   51 AT END OF TIME STEP   89, STRESS PERIOD    2

 DRAWDOWN WILL BE SAVED ON UNIT   52 AT END OF TIME STEP   89, STRESS PERIOD    2
1
  VOLUMETRIC BUDGET FOR ENTIRE MODEL AT END OF TIME STEP   89, STRESS PERIOD   2
  ------------------------------------------------------------------------------

     CUMULATIVE VOLUMES      L**3       RATES FOR THIS TIME STEP      L**3/T
     ------------------                 ------------------------

           IN:                                      IN:
           ---                                      ---
             STORAGE =      303371.6875               STORAGE =        1342.1824
       CONSTANT HEAD =           0.0000         CONSTANT HEAD =           0.0000
               WELLS =           0.0000                 WELLS =           0.0000
     HEAD DEP BOUNDS =        1542.1956       HEAD DEP BOUNDS =          66.7181

            TOTAL IN =      304913.8750              TOTAL IN =        1408.9004

          OUT:                                     OUT:
          ----                                     ----
             STORAGE =           0.0000               STORAGE =           0.0000
       CONSTANT HEAD =           0.0000         CONSTANT HEAD =           0.0000
               WELLS =           0.0000                 WELLS =           0.0000
     HEAD DEP BOUNDS =      304914.7812       HEAD DEP BOUNDS =        1408.9438

           TOTAL OUT =      304914.7812             TOTAL OUT =        1408.9438

            IN - OUT =          -0.9062              IN - OUT =      -4.3457E-02

 PERCENT DISCREPANCY =          -0.00     PERCENT DISCREPANCY =          -0.00






         TIME SUMMARY AT END OF TIME STEP   89 IN STRESS PERIOD    2
                    SECONDS     MINUTES      HOURS       DAYS        YEARS
                    -----------------------------------------------------------
   TIME STEP LENGTH  86400.      1440.0      24.000      1.0000     2.73785E-03
 STRESS PERIOD TIME 7.68960E+06 1.28160E+05  2136.0      89.000     0.24367    
         TOTAL TIME 7.77600E+06 1.29600E+05  2160.0      90.000     0.24641    
1
 
 SOLVING FOR HEAD 

 OUTPUT CONTROL FOR STRESS PERIOD    2   TIME STEP   90
    SAVE HEAD FOR ALL LAYERS
    SAVE DRAWDOWN FOR ALL LAYERS
    SAVE BUDGET
    PRINT HEAD FOR ALL LAYERS
    PRINT BUDGET
 UBDSV1 SAVING "         STORAGE" ON UNIT  53 AT TIME STEP 90, STRESS PERIOD   2
 UBDSV2 SAVING "   CONSTANT HEAD" ON UNIT  53 AT TIME STEP 90, STRESS PERIOD   2
 UBDSV1 SAVING "FLOW RIGHT FACE " ON UNIT  53 AT TIME STEP 90, STRESS PERIOD   2
 UBDSV1 SAVING "FLOW FRONT FACE " ON UNIT  53 AT TIME STEP 90, STRESS PERIOD   2
 UBDSV1 SAVING "FLOW LOWER FACE " ON UNIT  53 AT TIME STEP 90, STRESS PERIOD   2
1
              HEAD IN LAYER   1 AT END OF TIME STEP  90 IN STRESS PERIOD    2
  ---------------------------------------------------------------------------

            1           2           3           4           5           6           7           8           9          10
 ........................................................................................................................
   1   10.000       9.889       9.723       9.434       8.935       8.118       6.869       5.098       2.782      4.0947E-03
   2   10.000       9.889       9.723       9.434       8.935       8.118       6.869       5.098       2.782      4.0947E-03
   3   10.000       9.889       9.723       9.434       8.935       8.118       6.869       5.098       2.782      4.0947E-03
   4   10.000       9.889       9.723       9.434       8.935       8.118       6.869       5.098       2.782      4.0947E-03
   5   10.000       9.889       9.723       9.434       8.935       8.118       6.869       5.098       2.782      4.0947E-03
   6   10.000       9.889       9.723       9.434       8.935       8.118       6.869       5.098       2.782      4.0947E-03
   7   10.000       9.889       9.723       9.434       8.935       8.118       6.869       5.098       2.782      4.0947E-03
   8   10.000       9.889       9.723       9.434       8.935       8.118       6.869       5.098       2.782      4.0947E-03
   9   10.000       9.889       9.723       9.434       8.935       8.118       6.869       5.098       2.782      4.0947E-03
  10   10.000       9.889       9.723       9.434       8.935       8.118       6.869       5.098       2.782      4.0947E-03
1
              HEAD IN LAYER   2 AT END OF TIME STEP  90 IN STRESS PERIOD    2
  ---------------------------------------------------------------------------

            1           2           3           4           5           6           7           8           9          10
 ........................................................................................................................
   1   10.000       9.886       9.715       9.421       8.916       8.092       6.839       5.069       2.761      7.6224E-03
   2   10.000       9.886       9.715       9.421       8.916       8.092       6.839       5.069       2.761      7.6224E-03
   3   10.000       9.886       9.715       9.421       8.916       8.092       6.839       5.069       2.761      7.6224E-03
   4   10.000       9.886       9.715       9.421       8.916       8.092       6.839       5.069       2.761      7.6224E-03
   5   10.000       9.886       9.715       9.421       8.916       8.092       6.839       5.069       2.761      7.6224E-03
   6   10.000       9.886       9.715       9.421       8.916       8.092       6.839       5.069       2.761      7.6224E-03
   7   10.000       9.886       9.715       9.421       8.916       8.092       6.839       5.069       2.761      7.6224E-03
   8   10.000       9.886       9.715       9.421       8.916       8.092       6.839       5.069       2.761      7.6224E-03
   9   10.000       9.886       9.715       9.421       8.916       8.092       6.839       5.069       2.761      7.6224E-03
  10   10.000       9.886       9.715       9.421       8.916       8.092       6.839       5.069       2.761      7.6224E-03
1
              HEAD IN LAYER   3 AT END OF TIME STEP  90 IN STRESS PERIOD    2
  ---------------------------------------------------------------------------

            1           2           3           4           5           6           7           8           9          10
 ........................................................................................................................
   1   10.000       9.883       9.710       9.412       8.902       8.074       6.817       5.046       2.742      8.1375E-03
   2   10.000       9.883       9.710       9.412       8.902       8.074       6.817       5.046       2.742      8.1375E-03
   3   10.000       9.883       9.710       9.412       8.902       8.074       6.817       5.046       2.742      8.1375E-03
   4   10.000       9.883       9.710       9.412       8.902       8.074       6.817       5.046       2.742      8.1375E-03
   5   10.000       9.883       9.710       9.412       8.902       8.074       6.817       5.046       2.742      8.1375E-03
   6   10.000       9.883       9.710       9.412       8.902       8.074       6.817       5.046       2.742      8.1375E-03
   7   10.000       9.883       9.710       9.412       8.902       8.074       6.817       5.046       2.742      8.1375E-03
   8   10.000       9.883       9.710       9.412       8.902       8.074       6.817       5.046       2.742      8.1375E-03
   9   10.000       9.883       9.710       9.412       8.902       8.074       6.817       5.046       2.742      8.1375E-03
  10   10.000       9.883       9.710       9.412       8.902       8.074       6.817       5.046       2.742      8.1375E-03
1
              HEAD IN LAYER   4 AT END OF TIME STEP  90 IN STRESS PERIOD    2
  ---------------------------------------------------------------------------

            1           2           3           4           5           6           7           8           9          10
 ........................................................................................................................
   1   10.000       9.882       9.707       9.408       8.895       8.065       6.806       5.035       2.733      8.1699E-03
   2   10.000       9.882       9.707       9.408       8.895       8.065       6.806       5.035       2.733      8.1699E-03
   3   10.000       9.882       9.707       9.408       8.895       8.065       6.806       5.035       2.733      8.1699E-03
   4   10.000       9.882       9.707       9.408       8.895       8.065       6.806       5.035       2.733      8.1699E-03
   5   10.000       9.882       9.707       9.408       8.895       8.065       6.806       5.035       2.733      8.1699E-03
   6   10.000       9.882       9.707       9.408       8.895       8.065       6.806       5.035       2.733      8.1699E-03
   7   10.000       9.882       9.707       9.408       8.895       8.065       6.806       5.035       2.733      8.1699E-03
   8   10.000       9.882       9.707       9.408       8.895       8.065       6.806       5.035       2.733      8.1699E-03
   9   10.000       9.882       9.707       9.408       8.895       8.065       6.806       5.035       2.733      8.1699E-03
  10   10.000       9.882       9.707       9.408       8.895       8.065       6.806       5.035       2.733      8.1699E-03

 HEAD WILL BE SAVED ON UNIT   51 AT END OF TIME STEP   90, STRESS PERIOD    2

 DRAWDOWN WILL BE SAVED ON UNIT   52 AT END OF TIME STEP   90, STRESS PERIOD    2
1
  VOLUMETRIC BUDGET FOR ENTIRE MODEL AT END OF TIME STEP   90, STRESS PERIOD   2
  ------------------------------------------------------------------------------

     CUMULATIVE VOLUMES      L**3       RATES FOR THIS TIME STEP      L**3/T
     ------------------                 ------------------------

           IN:                                      IN:
           ---                                      ---
             STORAGE =      304704.2500               STORAGE =        1332.5493
       CONSTANT HEAD =           0.0000         CONSTANT HEAD =           0.0000
               WELLS =           0.0000                 WELLS =           0.0000
     HEAD DEP BOUNDS =        1610.8503       HEAD DEP BOUNDS =          68.6548

            TOTAL IN =      306315.0938              TOTAL IN =        1401.2041

          OUT:                                     OUT:
          ----                                     ----
             STORAGE =           0.0000               STORAGE =           0.0000
       CONSTANT HEAD =           0.0000         CONSTANT HEAD =           0.0000
               WELLS =           0.0000                 WELLS =           0.0000
     HEAD DEP BOUNDS =      306316.0000       HEAD DEP BOUNDS =        1401.2268

           TOTAL OUT =      306316.0000             TOTAL OUT =        1401.2268

            IN - OUT =          -0.9062              IN - OUT =      -2.2705E-02

 PERCENT DISCREPANCY =          -0.00     PERCENT DISCREPANCY =          -0.00






         TIME SUMMARY AT END OF TIME STEP   90 IN STRESS PERIOD    2
                    SECONDS     MINUTES      HOURS       DAYS        YEARS
                    -----------------------------------------------------------
   TIME STEP LENGTH  86400.      1440.0      24.000      1.0000     2.73785E-03
 STRESS PERIOD TIME 7.77600E+06 1.29600E+05  2160.0      90.000     0.24641    
         TOTAL TIME 7.86240E+06 1.31040E+05  2184.0      91.000     0.24914    
1
 
 SOLVING FOR HEAD 

 OUTPUT CONTROL FOR STRESS PERIOD    2   TIME STEP   91
    SAVE HEAD FOR ALL LAYERS
    SAVE DRAWDOWN FOR ALL LAYERS
    SAVE BUDGET
    PRINT HEAD FOR ALL LAYERS
    PRINT BUDGET
 UBDSV1 SAVING "         STORAGE" ON UNIT  53 AT TIME STEP 91, STRESS PERIOD   2
 UBDSV2 SAVING "   CONSTANT HEAD" ON UNIT  53 AT TIME STEP 91, STRESS PERIOD   2
 UBDSV1 SAVING "FLOW RIGHT FACE " ON UNIT  53 AT TIME STEP 91, STRESS PERIOD   2
 UBDSV1 SAVING "FLOW FRONT FACE " ON UNIT  53 AT TIME STEP 91, STRESS PERIOD   2
 UBDSV1 SAVING "FLOW LOWER FACE " ON UNIT  53 AT TIME STEP 91, STRESS PERIOD   2
1
              HEAD IN LAYER   1 AT END OF TIME STEP  91 IN STRESS PERIOD    2
  ---------------------------------------------------------------------------

            1           2           3           4           5           6           7           8           9          10
 ........................................................................................................................
   1   10.000       9.886       9.716       9.422       8.918       8.095       6.843       5.074       2.767      4.0702E-03
   2   10.000       9.886       9.716       9.422       8.918       8.095       6.843       5.074       2.767      4.0702E-03
   3   10.000       9.886       9.716       9.422       8.918       8.095       6.843       5.074       2.767      4.0702E-03
   4   10.000       9.886       9.716       9.422       8.918       8.095       6.843       5.074       2.767      4.0702E-03
   5   10.000       9.886       9.716       9.422       8.918       8.095       6.843       5.074       2.767      4.0702E-03
   6   10.000       9.886       9.716       9.422       8.918       8.095       6.843       5.074       2.767      4.0702E-03
   7   10.000       9.886       9.716       9.422       8.918       8.095       6.843       5.074       2.767      4.0702E-03
   8   10.000       9.886       9.716       9.422       8.918       8.095       6.843       5.074       2.767      4.0702E-03
   9   10.000       9.886       9.716       9.422       8.918       8.095       6.843       5.074       2.767      4.0702E-03
  10   10.000       9.886       9.716       9.422       8.918       8.095       6.843       5.074       2.767      4.0702E-03
1
              HEAD IN LAYER   2 AT END OF TIME STEP  91 IN STRESS PERIOD    2
  ---------------------------------------------------------------------------

            1           2           3           4           5           6           7           8           9          10
 ........................................................................................................................
   1   10.000       9.882       9.708       9.409       8.898       8.070       6.814       5.045       2.746      7.5811E-03
   2   10.000       9.882       9.708       9.409       8.898       8.070       6.814       5.045       2.746      7.5811E-03
   3   10.000       9.882       9.708       9.409       8.898       8.070       6.814       5.045       2.746      7.5811E-03
   4   10.000       9.882       9.708       9.409       8.898       8.070       6.814       5.045       2.746      7.5811E-03
   5   10.000       9.882       9.708       9.409       8.898       8.070       6.814       5.045       2.746      7.5811E-03
   6   10.000       9.882       9.708       9.409       8.898       8.070       6.814       5.045       2.746      7.5811E-03
   7   10.000       9.882       9.708       9.409       8.898       8.070       6.814       5.045       2.746      7.5811E-03
   8   10.000       9.882       9.708       9.409       8.898       8.070       6.814       5.045       2.746      7.5811E-03
   9   10.000       9.882       9.708       9.409       8.898       8.070       6.814       5.045       2.746      7.5811E-03
  10   10.000       9.882       9.708       9.409       8.898       8.070       6.814       5.045       2.746      7.5811E-03
1
              HEAD IN LAYER   3 AT END OF TIME STEP  91 IN STRESS PERIOD    2
  ---------------------------------------------------------------------------

            1           2           3           4           5           6           7           8           9          10
 ........................................................................................................................
   1   10.000       9.880       9.703       9.400       8.885       8.052       6.792       5.023       2.728      8.0943E-03
   2   10.000       9.880       9.703       9.400       8.885       8.052       6.792       5.023       2.728      8.0943E-03
   3   10.000       9.880       9.703       9.400       8.885       8.052       6.792       5.023       2.728      8.0943E-03
   4   10.000       9.880       9.703       9.400       8.885       8.052       6.792       5.023       2.728      8.0943E-03
   5   10.000       9.880       9.703       9.400       8.885       8.052       6.792       5.023       2.728      8.0943E-03
   6   10.000       9.880       9.703       9.400       8.885       8.052       6.792       5.023       2.728      8.0943E-03
   7   10.000       9.880       9.703       9.400       8.885       8.052       6.792       5.023       2.728      8.0943E-03
   8   10.000       9.880       9.703       9.400       8.885       8.052       6.792       5.023       2.728      8.0943E-03
   9   10.000       9.880       9.703       9.400       8.885       8.052       6.792       5.023       2.728      8.0943E-03
  10   10.000       9.880       9.703       9.400       8.885       8.052       6.792       5.023       2.728      8.0943E-03
1
              HEAD IN LAYER   4 AT END OF TIME STEP  91 IN STRESS PERIOD    2
  ---------------------------------------------------------------------------

            1           2           3           4           5           6           7           8           9          10
 ........................................................................................................................
   1   10.000       9.879       9.700       9.396       8.878       8.042       6.781       5.012       2.718      8.1268E-03
   2   10.000       9.879       9.700       9.396       8.878       8.042       6.781       5.012       2.718      8.1268E-03
   3   10.000       9.879       9.700       9.396       8.878       8.042       6.781       5.012       2.718      8.1268E-03
   4   10.000       9.879       9.700       9.396       8.878       8.042       6.781       5.012       2.718      8.1268E-03
   5   10.000       9.879       9.700       9.396       8.878       8.042       6.781       5.012       2.718      8.1268E-03
   6   10.000       9.879       9.700       9.396       8.878       8.042       6.781       5.012       2.718      8.1268E-03
   7   10.000       9.879       9.700       9.396       8.878       8.042       6.781       5.012       2.718      8.1268E-03
   8   10.000       9.879       9.700       9.396       8.878       8.042       6.781       5.012       2.718      8.1268E-03
   9   10.000       9.879       9.700       9.396       8.878       8.042       6.781       5.012       2.718      8.1268E-03
  10   10.000       9.879       9.700       9.396       8.878       8.042       6.781       5.012       2.718      8.1268E-03

 HEAD WILL BE SAVED ON UNIT   51 AT END OF TIME STEP   91, STRESS PERIOD    2

 DRAWDOWN WILL BE SAVED ON UNIT   52 AT END OF TIME STEP   91, STRESS PERIOD    2
1
  VOLUMETRIC BUDGET FOR ENTIRE MODEL AT END OF TIME STEP   91, STRESS PERIOD   2
  ------------------------------------------------------------------------------

     CUMULATIVE VOLUMES      L**3       RATES FOR THIS TIME STEP      L**3/T
     ------------------                 ------------------------

           IN:                                      IN:
           ---                                      ---
             STORAGE =      306027.2500               STORAGE =        1322.9946
       CONSTANT HEAD =           0.0000         CONSTANT HEAD =           0.0000
               WELLS =           0.0000                 WELLS =           0.0000
     HEAD DEP BOUNDS =        1681.4603       HEAD DEP BOUNDS =          70.6100

            TOTAL IN =      307708.7188              TOTAL IN =        1393.6046

          OUT:                                     OUT:
          ----                                     ----
             STORAGE =           0.0000               STORAGE =           0.0000
       CONSTANT HEAD =           0.0000         CONSTANT HEAD =           0.0000
               WELLS =           0.0000                 WELLS =           0.0000
     HEAD DEP BOUNDS =      307709.6250       HEAD DEP BOUNDS =        1393.6234

           TOTAL OUT =      307709.6250             TOTAL OUT =        1393.6234

            IN - OUT =          -0.9062              IN - OUT =      -1.8799E-02

 PERCENT DISCREPANCY =          -0.00     PERCENT DISCREPANCY =          -0.00






         TIME SUMMARY AT END OF TIME STEP   91 IN STRESS PERIOD    2
                    SECONDS     MINUTES      HOURS       DAYS        YEARS
                    -----------------------------------------------------------
   TIME STEP LENGTH  86400.      1440.0      24.000      1.0000     2.73785E-03
 STRESS PERIOD TIME 7.86240E+06 1.31040E+05  2184.0      91.000     0.24914    
         TOTAL TIME 7.94880E+06 1.32480E+05  2208.0      92.000     0.25188    
1
 
 SOLVING FOR HEAD 

 OUTPUT CONTROL FOR STRESS PERIOD    2   TIME STEP   92
    SAVE HEAD FOR ALL LAYERS
    SAVE DRAWDOWN FOR ALL LAYERS
    SAVE BUDGET
    PRINT HEAD FOR ALL LAYERS
    PRINT BUDGET
 UBDSV1 SAVING "         STORAGE" ON UNIT  53 AT TIME STEP 92, STRESS PERIOD   2
 UBDSV2 SAVING "   CONSTANT HEAD" ON UNIT  53 AT TIME STEP 92, STRESS PERIOD   2
 UBDSV1 SAVING "FLOW RIGHT FACE " ON UNIT  53 AT TIME STEP 92, STRESS PERIOD   2
 UBDSV1 SAVING "FLOW FRONT FACE " ON UNIT  53 AT TIME STEP 92, STRESS PERIOD   2
 UBDSV1 SAVING "FLOW LOWER FACE " ON UNIT  53 AT TIME STEP 92, STRESS PERIOD   2
1
              HEAD IN LAYER   1 AT END OF TIME STEP  92 IN STRESS PERIOD    2
  ---------------------------------------------------------------------------

            1           2           3           4           5           6           7           8           9          10
 ........................................................................................................................
   1   10.000       9.883       9.709       9.411       8.900       8.073       6.818       5.051       2.752      4.0462E-03
   2   10.000       9.883       9.709       9.411       8.900       8.073       6.818       5.051       2.752      4.0462E-03
   3   10.000       9.883       9.709       9.411       8.900       8.073       6.818       5.051       2.752      4.0462E-03
   4   10.000       9.883       9.709       9.411       8.900       8.073       6.818       5.051       2.752      4.0462E-03
   5   10.000       9.883       9.709       9.411       8.900       8.073       6.818       5.051       2.752      4.0462E-03
   6   10.000       9.883       9.709       9.411       8.900       8.073       6.818       5.051       2.752      4.0462E-03
   7   10.000       9.883       9.709       9.411       8.900       8.073       6.818       5.051       2.752      4.0462E-03
   8   10.000       9.883       9.709       9.411       8.900       8.073       6.818       5.051       2.752      4.0462E-03
   9   10.000       9.883       9.709       9.411       8.900       8.073       6.818       5.051       2.752      4.0462E-03
  10   10.000       9.883       9.709       9.411       8.900       8.073       6.818       5.051       2.752      4.0462E-03
1
              HEAD IN LAYER   2 AT END OF TIME STEP  92 IN STRESS PERIOD    2
  ---------------------------------------------------------------------------

            1           2           3           4           5           6           7           8           9          10
 ........................................................................................................................
   1   10.000       9.879       9.701       9.397       8.881       8.047       6.789       5.023       2.731      7.5406E-03
   2   10.000       9.879       9.701       9.397       8.881       8.047       6.789       5.023       2.731      7.5406E-03
   3   10.000       9.879       9.701       9.397       8.881       8.047       6.789       5.023       2.731      7.5406E-03
   4   10.000       9.879       9.701       9.397       8.881       8.047       6.789       5.023       2.731      7.5406E-03
   5   10.000       9.879       9.701       9.397       8.881       8.047       6.789       5.023       2.731      7.5406E-03
   6   10.000       9.879       9.701       9.397       8.881       8.047       6.789       5.023       2.731      7.5406E-03
   7   10.000       9.879       9.701       9.397       8.881       8.047       6.789       5.023       2.731      7.5406E-03
   8   10.000       9.879       9.701       9.397       8.881       8.047       6.789       5.023       2.731      7.5406E-03
   9   10.000       9.879       9.701       9.397       8.881       8.047       6.789       5.023       2.731      7.5406E-03
  10   10.000       9.879       9.701       9.397       8.881       8.047       6.789       5.023       2.731      7.5406E-03
1
              HEAD IN LAYER   3 AT END OF TIME STEP  92 IN STRESS PERIOD    2
  ---------------------------------------------------------------------------

            1           2           3           4           5           6           7           8           9          10
 ........................................................................................................................
   1   10.000       9.877       9.696       9.388       8.867       8.029       6.767       5.000       2.713      8.0518E-03
   2   10.000       9.877       9.696       9.388       8.867       8.029       6.767       5.000       2.713      8.0518E-03
   3   10.000       9.877       9.696       9.388       8.867       8.029       6.767       5.000       2.713      8.0518E-03
   4   10.000       9.877       9.696       9.388       8.867       8.029       6.767       5.000       2.713      8.0518E-03
   5   10.000       9.877       9.696       9.388       8.867       8.029       6.767       5.000       2.713      8.0518E-03
   6   10.000       9.877       9.696       9.388       8.867       8.029       6.767       5.000       2.713      8.0518E-03
   7   10.000       9.877       9.696       9.388       8.867       8.029       6.767       5.000       2.713      8.0518E-03
   8   10.000       9.877       9.696       9.388       8.867       8.029       6.767       5.000       2.713      8.0518E-03
   9   10.000       9.877       9.696       9.388       8.867       8.029       6.767       5.000       2.713      8.0518E-03
  10   10.000       9.877       9.696       9.388       8.867       8.029       6.767       5.000       2.713      8.0518E-03
1
              HEAD IN LAYER   4 AT END OF TIME STEP  92 IN STRESS PERIOD    2
  ---------------------------------------------------------------------------

            1           2           3           4           5           6           7           8           9          10
 ........................................................................................................................
   1   10.000       9.875       9.693       9.384       8.861       8.020       6.757       4.989       2.704      8.0843E-03
   2   10.000       9.875       9.693       9.384       8.861       8.020       6.757       4.989       2.704      8.0843E-03
   3   10.000       9.875       9.693       9.384       8.861       8.020       6.757       4.989       2.704      8.0843E-03
   4   10.000       9.875       9.693       9.384       8.861       8.020       6.757       4.989       2.704      8.0843E-03
   5   10.000       9.875       9.693       9.384       8.861       8.020       6.757       4.989       2.704      8.0843E-03
   6   10.000       9.875       9.693       9.384       8.861       8.020       6.757       4.989       2.704      8.0843E-03
   7   10.000       9.875       9.693       9.384       8.861       8.020       6.757       4.989       2.704      8.0843E-03
   8   10.000       9.875       9.693       9.384       8.861       8.020       6.757       4.989       2.704      8.0843E-03
   9   10.000       9.875       9.693       9.384       8.861       8.020       6.757       4.989       2.704      8.0843E-03
  10   10.000       9.875       9.693       9.384       8.861       8.020       6.757       4.989       2.704      8.0843E-03

 HEAD WILL BE SAVED ON UNIT   51 AT END OF TIME STEP   92, STRESS PERIOD    2

 DRAWDOWN WILL BE SAVED ON UNIT   52 AT END OF TIME STEP   92, STRESS PERIOD    2
1
  VOLUMETRIC BUDGET FOR ENTIRE MODEL AT END OF TIME STEP   92, STRESS PERIOD   2
  ------------------------------------------------------------------------------

     CUMULATIVE VOLUMES      L**3       RATES FOR THIS TIME STEP      L**3/T
     ------------------                 ------------------------

           IN:                                      IN:
           ---                                      ---
             STORAGE =      307340.7500               STORAGE =        1313.5149
       CONSTANT HEAD =           0.0000         CONSTANT HEAD =           0.0000
               WELLS =           0.0000                 WELLS =           0.0000
     HEAD DEP BOUNDS =        1754.0435       HEAD DEP BOUNDS =          72.5832

            TOTAL IN =      309094.7812              TOTAL IN =        1386.0980

          OUT:                                     OUT:
          ----                                     ----
             STORAGE =           0.0000               STORAGE =           0.0000
       CONSTANT HEAD =           0.0000         CONSTANT HEAD =           0.0000
               WELLS =           0.0000                 WELLS =           0.0000
     HEAD DEP BOUNDS =      309095.7812       HEAD DEP BOUNDS =        1386.1448

           TOTAL OUT =      309095.7812             TOTAL OUT =        1386.1448

            IN - OUT =          -1.0000              IN - OUT =      -4.6753E-02

 PERCENT DISCREPANCY =          -0.00     PERCENT DISCREPANCY =          -0.00






         TIME SUMMARY AT END OF TIME STEP   92 IN STRESS PERIOD    2
                    SECONDS     MINUTES      HOURS       DAYS        YEARS
                    -----------------------------------------------------------
   TIME STEP LENGTH  86400.      1440.0      24.000      1.0000     2.73785E-03
 STRESS PERIOD TIME 7.94880E+06 1.32480E+05  2208.0      92.000     0.25188    
         TOTAL TIME 8.03520E+06 1.33920E+05  2232.0      93.000     0.25462    
1
 
 SOLVING FOR HEAD 

 OUTPUT CONTROL FOR STRESS PERIOD    2   TIME STEP   93
    SAVE HEAD FOR ALL LAYERS
    SAVE DRAWDOWN FOR ALL LAYERS
    SAVE BUDGET
    PRINT HEAD FOR ALL LAYERS
    PRINT BUDGET
 UBDSV1 SAVING "         STORAGE" ON UNIT  53 AT TIME STEP 93, STRESS PERIOD   2
 UBDSV2 SAVING "   CONSTANT HEAD" ON UNIT  53 AT TIME STEP 93, STRESS PERIOD   2
 UBDSV1 SAVING "FLOW RIGHT FACE " ON UNIT  53 AT TIME STEP 93, STRESS PERIOD   2
 UBDSV1 SAVING "FLOW FRONT FACE " ON UNIT  53 AT TIME STEP 93, STRESS PERIOD   2
 UBDSV1 SAVING "FLOW LOWER FACE " ON UNIT  53 AT TIME STEP 93, STRESS PERIOD   2
1
              HEAD IN LAYER   1 AT END OF TIME STEP  93 IN STRESS PERIOD    2
  ---------------------------------------------------------------------------

            1           2           3           4           5           6           7           8           9          10
 ........................................................................................................................
   1   10.000       9.879       9.702       9.399       8.883       8.050       6.793       5.028       2.737      4.0227E-03
   2   10.000       9.879       9.702       9.399       8.883       8.050       6.793       5.028       2.737      4.0227E-03
   3   10.000       9.879       9.702       9.399       8.883       8.050       6.793       5.028       2.737      4.0227E-03
   4   10.000       9.879       9.702       9.399       8.883       8.050       6.793       5.028       2.737      4.0227E-03
   5   10.000       9.879       9.702       9.399       8.883       8.050       6.793       5.028       2.737      4.0227E-03
   6   10.000       9.879       9.702       9.399       8.883       8.050       6.793       5.028       2.737      4.0227E-03
   7   10.000       9.879       9.702       9.399       8.883       8.050       6.793       5.028       2.737      4.0227E-03
   8   10.000       9.879       9.702       9.399       8.883       8.050       6.793       5.028       2.737      4.0227E-03
   9   10.000       9.879       9.702       9.399       8.883       8.050       6.793       5.028       2.737      4.0227E-03
  10   10.000       9.879       9.702       9.399       8.883       8.050       6.793       5.028       2.737      4.0227E-03
1
              HEAD IN LAYER   2 AT END OF TIME STEP  93 IN STRESS PERIOD    2
  ---------------------------------------------------------------------------

            1           2           3           4           5           6           7           8           9          10
 ........................................................................................................................
   1   10.000       9.876       9.694       9.385       8.863       8.025       6.764       5.000       2.717      7.5007E-03
   2   10.000       9.876       9.694       9.385       8.863       8.025       6.764       5.000       2.717      7.5007E-03
   3   10.000       9.876       9.694       9.385       8.863       8.025       6.764       5.000       2.717      7.5007E-03
   4   10.000       9.876       9.694       9.385       8.863       8.025       6.764       5.000       2.717      7.5007E-03
   5   10.000       9.876       9.694       9.385       8.863       8.025       6.764       5.000       2.717      7.5007E-03
   6   10.000       9.876       9.694       9.385       8.863       8.025       6.764       5.000       2.717      7.5007E-03
   7   10.000       9.876       9.694       9.385       8.863       8.025       6.764       5.000       2.717      7.5007E-03
   8   10.000       9.876       9.694       9.385       8.863       8.025       6.764       5.000       2.717      7.5007E-03
   9   10.000       9.876       9.694       9.385       8.863       8.025       6.764       5.000       2.717      7.5007E-03
  10   10.000       9.876       9.694       9.385       8.863       8.025       6.764       5.000       2.717      7.5007E-03
1
              HEAD IN LAYER   3 AT END OF TIME STEP  93 IN STRESS PERIOD    2
  ---------------------------------------------------------------------------

            1           2           3           4           5           6           7           8           9          10
 ........................................................................................................................
   1   10.000       9.873       9.688       9.376       8.850       8.007       6.743       4.978       2.699      8.0099E-03
   2   10.000       9.873       9.688       9.376       8.850       8.007       6.743       4.978       2.699      8.0099E-03
   3   10.000       9.873       9.688       9.376       8.850       8.007       6.743       4.978       2.699      8.0099E-03
   4   10.000       9.873       9.688       9.376       8.850       8.007       6.743       4.978       2.699      8.0099E-03
   5   10.000       9.873       9.688       9.376       8.850       8.007       6.743       4.978       2.699      8.0099E-03
   6   10.000       9.873       9.688       9.376       8.850       8.007       6.743       4.978       2.699      8.0099E-03
   7   10.000       9.873       9.688       9.376       8.850       8.007       6.743       4.978       2.699      8.0099E-03
   8   10.000       9.873       9.688       9.376       8.850       8.007       6.743       4.978       2.699      8.0099E-03
   9   10.000       9.873       9.688       9.376       8.850       8.007       6.743       4.978       2.699      8.0099E-03
  10   10.000       9.873       9.688       9.376       8.850       8.007       6.743       4.978       2.699      8.0099E-03
1
              HEAD IN LAYER   4 AT END OF TIME STEP  93 IN STRESS PERIOD    2
  ---------------------------------------------------------------------------

            1           2           3           4           5           6           7           8           9          10
 ........................................................................................................................
   1   10.000       9.872       9.686       9.372       8.843       7.998       6.732       4.967       2.690      8.0425E-03
   2   10.000       9.872       9.686       9.372       8.843       7.998       6.732       4.967       2.690      8.0425E-03
   3   10.000       9.872       9.686       9.372       8.843       7.998       6.732       4.967       2.690      8.0425E-03
   4   10.000       9.872       9.686       9.372       8.843       7.998       6.732       4.967       2.690      8.0425E-03
   5   10.000       9.872       9.686       9.372       8.843       7.998       6.732       4.967       2.690      8.0425E-03
   6   10.000       9.872       9.686       9.372       8.843       7.998       6.732       4.967       2.690      8.0425E-03
   7   10.000       9.872       9.686       9.372       8.843       7.998       6.732       4.967       2.690      8.0425E-03
   8   10.000       9.872       9.686       9.372       8.843       7.998       6.732       4.967       2.690      8.0425E-03
   9   10.000       9.872       9.686       9.372       8.843       7.998       6.732       4.967       2.690      8.0425E-03
  10   10.000       9.872       9.686       9.372       8.843       7.998       6.732       4.967       2.690      8.0425E-03

 HEAD WILL BE SAVED ON UNIT   51 AT END OF TIME STEP   93, STRESS PERIOD    2

 DRAWDOWN WILL BE SAVED ON UNIT   52 AT END OF TIME STEP   93, STRESS PERIOD    2
1
  VOLUMETRIC BUDGET FOR ENTIRE MODEL AT END OF TIME STEP   93, STRESS PERIOD   2
  ------------------------------------------------------------------------------

     CUMULATIVE VOLUMES      L**3       RATES FOR THIS TIME STEP      L**3/T
     ------------------                 ------------------------

           IN:                                      IN:
           ---                                      ---
             STORAGE =      308644.9375               STORAGE =        1304.1774
       CONSTANT HEAD =           0.0000         CONSTANT HEAD =           0.0000
               WELLS =           0.0000                 WELLS =           0.0000
     HEAD DEP BOUNDS =        1828.6166       HEAD DEP BOUNDS =          74.5732

            TOTAL IN =      310473.5625              TOTAL IN =        1378.7505

          OUT:                                     OUT:
          ----                                     ----
             STORAGE =           0.0000               STORAGE =           0.0000
       CONSTANT HEAD =           0.0000         CONSTANT HEAD =           0.0000
               WELLS =           0.0000                 WELLS =           0.0000
     HEAD DEP BOUNDS =      310474.5625       HEAD DEP BOUNDS =        1378.7904

           TOTAL OUT =      310474.5625             TOTAL OUT =        1378.7904

            IN - OUT =          -1.0000              IN - OUT =      -3.9917E-02

 PERCENT DISCREPANCY =          -0.00     PERCENT DISCREPANCY =          -0.00






         TIME SUMMARY AT END OF TIME STEP   93 IN STRESS PERIOD    2
                    SECONDS     MINUTES      HOURS       DAYS        YEARS
                    -----------------------------------------------------------
   TIME STEP LENGTH  86400.      1440.0      24.000      1.0000     2.73785E-03
 STRESS PERIOD TIME 8.03520E+06 1.33920E+05  2232.0      93.000     0.25462    
         TOTAL TIME 8.12160E+06 1.35360E+05  2256.0      94.000     0.25736    
1
 
 SOLVING FOR HEAD 

 OUTPUT CONTROL FOR STRESS PERIOD    2   TIME STEP   94
    SAVE HEAD FOR ALL LAYERS
    SAVE DRAWDOWN FOR ALL LAYERS
    SAVE BUDGET
    PRINT HEAD FOR ALL LAYERS
    PRINT BUDGET
 UBDSV1 SAVING "         STORAGE" ON UNIT  53 AT TIME STEP 94, STRESS PERIOD   2
 UBDSV2 SAVING "   CONSTANT HEAD" ON UNIT  53 AT TIME STEP 94, STRESS PERIOD   2
 UBDSV1 SAVING "FLOW RIGHT FACE " ON UNIT  53 AT TIME STEP 94, STRESS PERIOD   2
 UBDSV1 SAVING "FLOW FRONT FACE " ON UNIT  53 AT TIME STEP 94, STRESS PERIOD   2
 UBDSV1 SAVING "FLOW LOWER FACE " ON UNIT  53 AT TIME STEP 94, STRESS PERIOD   2
1
              HEAD IN LAYER   1 AT END OF TIME STEP  94 IN STRESS PERIOD    2
  ---------------------------------------------------------------------------

            1           2           3           4           5           6           7           8           9          10
 ........................................................................................................................
   1   10.000       9.876       9.695       9.387       8.866       8.028       6.768       5.005       2.723      3.9994E-03
   2   10.000       9.876       9.695       9.387       8.866       8.028       6.768       5.005       2.723      3.9994E-03
   3   10.000       9.876       9.695       9.387       8.866       8.028       6.768       5.005       2.723      3.9994E-03
   4   10.000       9.876       9.695       9.387       8.866       8.028       6.768       5.005       2.723      3.9994E-03
   5   10.000       9.876       9.695       9.387       8.866       8.028       6.768       5.005       2.723      3.9994E-03
   6   10.000       9.876       9.695       9.387       8.866       8.028       6.768       5.005       2.723      3.9994E-03
   7   10.000       9.876       9.695       9.387       8.866       8.028       6.768       5.005       2.723      3.9994E-03
   8   10.000       9.876       9.695       9.387       8.866       8.028       6.768       5.005       2.723      3.9994E-03
   9   10.000       9.876       9.695       9.387       8.866       8.028       6.768       5.005       2.723      3.9994E-03
  10   10.000       9.876       9.695       9.387       8.866       8.028       6.768       5.005       2.723      3.9994E-03
1
              HEAD IN LAYER   2 AT END OF TIME STEP  94 IN STRESS PERIOD    2
  ---------------------------------------------------------------------------

            1           2           3           4           5           6           7           8           9          10
 ........................................................................................................................
   1   10.000       9.872       9.687       9.373       8.846       8.003       6.740       4.978       2.703      7.4614E-03
   2   10.000       9.872       9.687       9.373       8.846       8.003       6.740       4.978       2.703      7.4614E-03
   3   10.000       9.872       9.687       9.373       8.846       8.003       6.740       4.978       2.703      7.4614E-03
   4   10.000       9.872       9.687       9.373       8.846       8.003       6.740       4.978       2.703      7.4614E-03
   5   10.000       9.872       9.687       9.373       8.846       8.003       6.740       4.978       2.703      7.4614E-03
   6   10.000       9.872       9.687       9.373       8.846       8.003       6.740       4.978       2.703      7.4614E-03
   7   10.000       9.872       9.687       9.373       8.846       8.003       6.740       4.978       2.703      7.4614E-03
   8   10.000       9.872       9.687       9.373       8.846       8.003       6.740       4.978       2.703      7.4614E-03
   9   10.000       9.872       9.687       9.373       8.846       8.003       6.740       4.978       2.703      7.4614E-03
  10   10.000       9.872       9.687       9.373       8.846       8.003       6.740       4.978       2.703      7.4614E-03
1
              HEAD IN LAYER   3 AT END OF TIME STEP  94 IN STRESS PERIOD    2
  ---------------------------------------------------------------------------

            1           2           3           4           5           6           7           8           9          10
 ........................................................................................................................
   1   10.000       9.870       9.681       9.364       8.833       7.985       6.719       4.956       2.685      7.9686E-03
   2   10.000       9.870       9.681       9.364       8.833       7.985       6.719       4.956       2.685      7.9686E-03
   3   10.000       9.870       9.681       9.364       8.833       7.985       6.719       4.956       2.685      7.9686E-03
   4   10.000       9.870       9.681       9.364       8.833       7.985       6.719       4.956       2.685      7.9686E-03
   5   10.000       9.870       9.681       9.364       8.833       7.985       6.719       4.956       2.685      7.9686E-03
   6   10.000       9.870       9.681       9.364       8.833       7.985       6.719       4.956       2.685      7.9686E-03
   7   10.000       9.870       9.681       9.364       8.833       7.985       6.719       4.956       2.685      7.9686E-03
   8   10.000       9.870       9.681       9.364       8.833       7.985       6.719       4.956       2.685      7.9686E-03
   9   10.000       9.870       9.681       9.364       8.833       7.985       6.719       4.956       2.685      7.9686E-03
  10   10.000       9.870       9.681       9.364       8.833       7.985       6.719       4.956       2.685      7.9686E-03
1
              HEAD IN LAYER   4 AT END OF TIME STEP  94 IN STRESS PERIOD    2
  ---------------------------------------------------------------------------

            1           2           3           4           5           6           7           8           9          10
 ........................................................................................................................
   1   10.000       9.869       9.678       9.360       8.826       7.976       6.708       4.945       2.677      8.0014E-03
   2   10.000       9.869       9.678       9.360       8.826       7.976       6.708       4.945       2.677      8.0014E-03
   3   10.000       9.869       9.678       9.360       8.826       7.976       6.708       4.945       2.677      8.0014E-03
   4   10.000       9.869       9.678       9.360       8.826       7.976       6.708       4.945       2.677      8.0014E-03
   5   10.000       9.869       9.678       9.360       8.826       7.976       6.708       4.945       2.677      8.0014E-03
   6   10.000       9.869       9.678       9.360       8.826       7.976       6.708       4.945       2.677      8.0014E-03
   7   10.000       9.869       9.678       9.360       8.826       7.976       6.708       4.945       2.677      8.0014E-03
   8   10.000       9.869       9.678       9.360       8.826       7.976       6.708       4.945       2.677      8.0014E-03
   9   10.000       9.869       9.678       9.360       8.826       7.976       6.708       4.945       2.677      8.0014E-03
  10   10.000       9.869       9.678       9.360       8.826       7.976       6.708       4.945       2.677      8.0014E-03

 HEAD WILL BE SAVED ON UNIT   51 AT END OF TIME STEP   94, STRESS PERIOD    2

 DRAWDOWN WILL BE SAVED ON UNIT   52 AT END OF TIME STEP   94, STRESS PERIOD    2
1
  VOLUMETRIC BUDGET FOR ENTIRE MODEL AT END OF TIME STEP   94, STRESS PERIOD   2
  ------------------------------------------------------------------------------

     CUMULATIVE VOLUMES      L**3       RATES FOR THIS TIME STEP      L**3/T
     ------------------                 ------------------------

           IN:                                      IN:
           ---                                      ---
             STORAGE =      309939.8125               STORAGE =        1294.8850
       CONSTANT HEAD =           0.0000         CONSTANT HEAD =           0.0000
               WELLS =           0.0000                 WELLS =           0.0000
     HEAD DEP BOUNDS =        1905.1963       HEAD DEP BOUNDS =          76.5797

            TOTAL IN =      311845.0000              TOTAL IN =        1371.4647

          OUT:                                     OUT:
          ----                                     ----
             STORAGE =           0.0000               STORAGE =           0.0000
       CONSTANT HEAD =           0.0000         CONSTANT HEAD =           0.0000
               WELLS =           0.0000                 WELLS =           0.0000
     HEAD DEP BOUNDS =      311846.0938       HEAD DEP BOUNDS =        1371.5391

           TOTAL OUT =      311846.0938             TOTAL OUT =        1371.5391

            IN - OUT =          -1.0938              IN - OUT =      -7.4341E-02

 PERCENT DISCREPANCY =          -0.00     PERCENT DISCREPANCY =          -0.01






         TIME SUMMARY AT END OF TIME STEP   94 IN STRESS PERIOD    2
                    SECONDS     MINUTES      HOURS       DAYS        YEARS
                    -----------------------------------------------------------
   TIME STEP LENGTH  86400.      1440.0      24.000      1.0000     2.73785E-03
 STRESS PERIOD TIME 8.12160E+06 1.35360E+05  2256.0      94.000     0.25736    
         TOTAL TIME 8.20800E+06 1.36800E+05  2280.0      95.000     0.26010    
1
 
 SOLVING FOR HEAD 

 OUTPUT CONTROL FOR STRESS PERIOD    2   TIME STEP   95
    SAVE HEAD FOR ALL LAYERS
    SAVE DRAWDOWN FOR ALL LAYERS
    SAVE BUDGET
    PRINT HEAD FOR ALL LAYERS
    PRINT BUDGET
 UBDSV1 SAVING "         STORAGE" ON UNIT  53 AT TIME STEP 95, STRESS PERIOD   2
 UBDSV2 SAVING "   CONSTANT HEAD" ON UNIT  53 AT TIME STEP 95, STRESS PERIOD   2
 UBDSV1 SAVING "FLOW RIGHT FACE " ON UNIT  53 AT TIME STEP 95, STRESS PERIOD   2
 UBDSV1 SAVING "FLOW FRONT FACE " ON UNIT  53 AT TIME STEP 95, STRESS PERIOD   2
 UBDSV1 SAVING "FLOW LOWER FACE " ON UNIT  53 AT TIME STEP 95, STRESS PERIOD   2
1
              HEAD IN LAYER   1 AT END OF TIME STEP  95 IN STRESS PERIOD    2
  ---------------------------------------------------------------------------

            1           2           3           4           5           6           7           8           9          10
 ........................................................................................................................
   1   10.000       9.873       9.687       9.375       8.848       8.006       6.744       4.982       2.709      3.9767E-03
   2   10.000       9.873       9.687       9.375       8.848       8.006       6.744       4.982       2.709      3.9767E-03
   3   10.000       9.873       9.687       9.375       8.848       8.006       6.744       4.982       2.709      3.9767E-03
   4   10.000       9.873       9.687       9.375       8.848       8.006       6.744       4.982       2.709      3.9767E-03
   5   10.000       9.873       9.687       9.375       8.848       8.006       6.744       4.982       2.709      3.9767E-03
   6   10.000       9.873       9.687       9.375       8.848       8.006       6.744       4.982       2.709      3.9767E-03
   7   10.000       9.873       9.687       9.375       8.848       8.006       6.744       4.982       2.709      3.9767E-03
   8   10.000       9.873       9.687       9.375       8.848       8.006       6.744       4.982       2.709      3.9767E-03
   9   10.000       9.873       9.687       9.375       8.848       8.006       6.744       4.982       2.709      3.9767E-03
  10   10.000       9.873       9.687       9.375       8.848       8.006       6.744       4.982       2.709      3.9767E-03
1
              HEAD IN LAYER   2 AT END OF TIME STEP  95 IN STRESS PERIOD    2
  ---------------------------------------------------------------------------

            1           2           3           4           5           6           7           8           9          10
 ........................................................................................................................
   1   10.000       9.869       9.679       9.361       8.829       7.981       6.716       4.955       2.689      7.4227E-03
   2   10.000       9.869       9.679       9.361       8.829       7.981       6.716       4.955       2.689      7.4227E-03
   3   10.000       9.869       9.679       9.361       8.829       7.981       6.716       4.955       2.689      7.4227E-03
   4   10.000       9.869       9.679       9.361       8.829       7.981       6.716       4.955       2.689      7.4227E-03
   5   10.000       9.869       9.679       9.361       8.829       7.981       6.716       4.955       2.689      7.4227E-03
   6   10.000       9.869       9.679       9.361       8.829       7.981       6.716       4.955       2.689      7.4227E-03
   7   10.000       9.869       9.679       9.361       8.829       7.981       6.716       4.955       2.689      7.4227E-03
   8   10.000       9.869       9.679       9.361       8.829       7.981       6.716       4.955       2.689      7.4227E-03
   9   10.000       9.869       9.679       9.361       8.829       7.981       6.716       4.955       2.689      7.4227E-03
  10   10.000       9.869       9.679       9.361       8.829       7.981       6.716       4.955       2.689      7.4227E-03
1
              HEAD IN LAYER   3 AT END OF TIME STEP  95 IN STRESS PERIOD    2
  ---------------------------------------------------------------------------

            1           2           3           4           5           6           7           8           9          10
 ........................................................................................................................
   1   10.000       9.866       9.674       9.352       8.815       7.963       6.695       4.934       2.672      7.9280E-03
   2   10.000       9.866       9.674       9.352       8.815       7.963       6.695       4.934       2.672      7.9280E-03
   3   10.000       9.866       9.674       9.352       8.815       7.963       6.695       4.934       2.672      7.9280E-03
   4   10.000       9.866       9.674       9.352       8.815       7.963       6.695       4.934       2.672      7.9280E-03
   5   10.000       9.866       9.674       9.352       8.815       7.963       6.695       4.934       2.672      7.9280E-03
   6   10.000       9.866       9.674       9.352       8.815       7.963       6.695       4.934       2.672      7.9280E-03
   7   10.000       9.866       9.674       9.352       8.815       7.963       6.695       4.934       2.672      7.9280E-03
   8   10.000       9.866       9.674       9.352       8.815       7.963       6.695       4.934       2.672      7.9280E-03
   9   10.000       9.866       9.674       9.352       8.815       7.963       6.695       4.934       2.672      7.9280E-03
  10   10.000       9.866       9.674       9.352       8.815       7.963       6.695       4.934       2.672      7.9280E-03
1
              HEAD IN LAYER   4 AT END OF TIME STEP  95 IN STRESS PERIOD    2
  ---------------------------------------------------------------------------

            1           2           3           4           5           6           7           8           9          10
 ........................................................................................................................
   1   10.000       9.865       9.671       9.347       8.809       7.955       6.684       4.923       2.663      7.9608E-03
   2   10.000       9.865       9.671       9.347       8.809       7.955       6.684       4.923       2.663      7.9608E-03
   3   10.000       9.865       9.671       9.347       8.809       7.955       6.684       4.923       2.663      7.9608E-03
   4   10.000       9.865       9.671       9.347       8.809       7.955       6.684       4.923       2.663      7.9608E-03
   5   10.000       9.865       9.671       9.347       8.809       7.955       6.684       4.923       2.663      7.9608E-03
   6   10.000       9.865       9.671       9.347       8.809       7.955       6.684       4.923       2.663      7.9608E-03
   7   10.000       9.865       9.671       9.347       8.809       7.955       6.684       4.923       2.663      7.9608E-03
   8   10.000       9.865       9.671       9.347       8.809       7.955       6.684       4.923       2.663      7.9608E-03
   9   10.000       9.865       9.671       9.347       8.809       7.955       6.684       4.923       2.663      7.9608E-03
  10   10.000       9.865       9.671       9.347       8.809       7.955       6.684       4.923       2.663      7.9608E-03

 HEAD WILL BE SAVED ON UNIT   51 AT END OF TIME STEP   95, STRESS PERIOD    2

 DRAWDOWN WILL BE SAVED ON UNIT   52 AT END OF TIME STEP   95, STRESS PERIOD    2
1
  VOLUMETRIC BUDGET FOR ENTIRE MODEL AT END OF TIME STEP   95, STRESS PERIOD   2
  ------------------------------------------------------------------------------

     CUMULATIVE VOLUMES      L**3       RATES FOR THIS TIME STEP      L**3/T
     ------------------                 ------------------------

           IN:                                      IN:
           ---                                      ---
             STORAGE =      311225.5625               STORAGE =        1285.7595
       CONSTANT HEAD =           0.0000         CONSTANT HEAD =           0.0000
               WELLS =           0.0000                 WELLS =           0.0000
     HEAD DEP BOUNDS =        1983.7985       HEAD DEP BOUNDS =          78.6021

            TOTAL IN =      313209.3750              TOTAL IN =        1364.3617

          OUT:                                     OUT:
          ----                                     ----
             STORAGE =           0.0000               STORAGE =           0.0000
       CONSTANT HEAD =           0.0000         CONSTANT HEAD =           0.0000
               WELLS =           0.0000                 WELLS =           0.0000
     HEAD DEP BOUNDS =      313210.5000       HEAD DEP BOUNDS =        1364.4137

           TOTAL OUT =      313210.5000             TOTAL OUT =        1364.4137

            IN - OUT =          -1.1250              IN - OUT =      -5.2002E-02

 PERCENT DISCREPANCY =          -0.00     PERCENT DISCREPANCY =          -0.00






         TIME SUMMARY AT END OF TIME STEP   95 IN STRESS PERIOD    2
                    SECONDS     MINUTES      HOURS       DAYS        YEARS
                    -----------------------------------------------------------
   TIME STEP LENGTH  86400.      1440.0      24.000      1.0000     2.73785E-03
 STRESS PERIOD TIME 8.20800E+06 1.36800E+05  2280.0      95.000     0.26010    
         TOTAL TIME 8.29440E+06 1.38240E+05  2304.0      96.000     0.26283    
1
 
 SOLVING FOR HEAD 

 OUTPUT CONTROL FOR STRESS PERIOD    2   TIME STEP   96
    SAVE HEAD FOR ALL LAYERS
    SAVE DRAWDOWN FOR ALL LAYERS
    SAVE BUDGET
    PRINT HEAD FOR ALL LAYERS
    PRINT BUDGET
 UBDSV1 SAVING "         STORAGE" ON UNIT  53 AT TIME STEP 96, STRESS PERIOD   2
 UBDSV2 SAVING "   CONSTANT HEAD" ON UNIT  53 AT TIME STEP 96, STRESS PERIOD   2
 UBDSV1 SAVING "FLOW RIGHT FACE " ON UNIT  53 AT TIME STEP 96, STRESS PERIOD   2
 UBDSV1 SAVING "FLOW FRONT FACE " ON UNIT  53 AT TIME STEP 96, STRESS PERIOD   2
 UBDSV1 SAVING "FLOW LOWER FACE " ON UNIT  53 AT TIME STEP 96, STRESS PERIOD   2
1
              HEAD IN LAYER   1 AT END OF TIME STEP  96 IN STRESS PERIOD    2
  ---------------------------------------------------------------------------

            1           2           3           4           5           6           7           8           9          10
 ........................................................................................................................
   1   10.000       9.869       9.680       9.363       8.831       7.984       6.720       4.960       2.695      3.9541E-03
   2   10.000       9.869       9.680       9.363       8.831       7.984       6.720       4.960       2.695      3.9541E-03
   3   10.000       9.869       9.680       9.363       8.831       7.984       6.720       4.960       2.695      3.9541E-03
   4   10.000       9.869       9.680       9.363       8.831       7.984       6.720       4.960       2.695      3.9541E-03
   5   10.000       9.869       9.680       9.363       8.831       7.984       6.720       4.960       2.695      3.9541E-03
   6   10.000       9.869       9.680       9.363       8.831       7.984       6.720       4.960       2.695      3.9541E-03
   7   10.000       9.869       9.680       9.363       8.831       7.984       6.720       4.960       2.695      3.9541E-03
   8   10.000       9.869       9.680       9.363       8.831       7.984       6.720       4.960       2.695      3.9541E-03
   9   10.000       9.869       9.680       9.363       8.831       7.984       6.720       4.960       2.695      3.9541E-03
  10   10.000       9.869       9.680       9.363       8.831       7.984       6.720       4.960       2.695      3.9541E-03
1
              HEAD IN LAYER   2 AT END OF TIME STEP  96 IN STRESS PERIOD    2
  ---------------------------------------------------------------------------

            1           2           3           4           5           6           7           8           9          10
 ........................................................................................................................
   1   10.000       9.866       9.672       9.349       8.812       7.959       6.692       4.934       2.675      7.3846E-03
   2   10.000       9.866       9.672       9.349       8.812       7.959       6.692       4.934       2.675      7.3846E-03
   3   10.000       9.866       9.672       9.349       8.812       7.959       6.692       4.934       2.675      7.3846E-03
   4   10.000       9.866       9.672       9.349       8.812       7.959       6.692       4.934       2.675      7.3846E-03
   5   10.000       9.866       9.672       9.349       8.812       7.959       6.692       4.934       2.675      7.3846E-03
   6   10.000       9.866       9.672       9.349       8.812       7.959       6.692       4.934       2.675      7.3846E-03
   7   10.000       9.866       9.672       9.349       8.812       7.959       6.692       4.934       2.675      7.3846E-03
   8   10.000       9.866       9.672       9.349       8.812       7.959       6.692       4.934       2.675      7.3846E-03
   9   10.000       9.866       9.672       9.349       8.812       7.959       6.692       4.934       2.675      7.3846E-03
  10   10.000       9.866       9.672       9.349       8.812       7.959       6.692       4.934       2.675      7.3846E-03
1
              HEAD IN LAYER   3 AT END OF TIME STEP  96 IN STRESS PERIOD    2
  ---------------------------------------------------------------------------

            1           2           3           4           5           6           7           8           9          10
 ........................................................................................................................
   1   10.000       9.863       9.666       9.340       8.798       7.942       6.671       4.912       2.658      7.8881E-03
   2   10.000       9.863       9.666       9.340       8.798       7.942       6.671       4.912       2.658      7.8881E-03
   3   10.000       9.863       9.666       9.340       8.798       7.942       6.671       4.912       2.658      7.8881E-03
   4   10.000       9.863       9.666       9.340       8.798       7.942       6.671       4.912       2.658      7.8881E-03
   5   10.000       9.863       9.666       9.340       8.798       7.942       6.671       4.912       2.658      7.8881E-03
   6   10.000       9.863       9.666       9.340       8.798       7.942       6.671       4.912       2.658      7.8881E-03
   7   10.000       9.863       9.666       9.340       8.798       7.942       6.671       4.912       2.658      7.8881E-03
   8   10.000       9.863       9.666       9.340       8.798       7.942       6.671       4.912       2.658      7.8881E-03
   9   10.000       9.863       9.666       9.340       8.798       7.942       6.671       4.912       2.658      7.8881E-03
  10   10.000       9.863       9.666       9.340       8.798       7.942       6.671       4.912       2.658      7.8881E-03
1
              HEAD IN LAYER   4 AT END OF TIME STEP  96 IN STRESS PERIOD    2
  ---------------------------------------------------------------------------

            1           2           3           4           5           6           7           8           9          10
 ........................................................................................................................
   1   10.000       9.862       9.664       9.335       8.792       7.933       6.660       4.902       2.650      7.9209E-03
   2   10.000       9.862       9.664       9.335       8.792       7.933       6.660       4.902       2.650      7.9209E-03
   3   10.000       9.862       9.664       9.335       8.792       7.933       6.660       4.902       2.650      7.9209E-03
   4   10.000       9.862       9.664       9.335       8.792       7.933       6.660       4.902       2.650      7.9209E-03
   5   10.000       9.862       9.664       9.335       8.792       7.933       6.660       4.902       2.650      7.9209E-03
   6   10.000       9.862       9.664       9.335       8.792       7.933       6.660       4.902       2.650      7.9209E-03
   7   10.000       9.862       9.664       9.335       8.792       7.933       6.660       4.902       2.650      7.9209E-03
   8   10.000       9.862       9.664       9.335       8.792       7.933       6.660       4.902       2.650      7.9209E-03
   9   10.000       9.862       9.664       9.335       8.792       7.933       6.660       4.902       2.650      7.9209E-03
  10   10.000       9.862       9.664       9.335       8.792       7.933       6.660       4.902       2.650      7.9209E-03

 HEAD WILL BE SAVED ON UNIT   51 AT END OF TIME STEP   96, STRESS PERIOD    2

 DRAWDOWN WILL BE SAVED ON UNIT   52 AT END OF TIME STEP   96, STRESS PERIOD    2
1
  VOLUMETRIC BUDGET FOR ENTIRE MODEL AT END OF TIME STEP   96, STRESS PERIOD   2
  ------------------------------------------------------------------------------

     CUMULATIVE VOLUMES      L**3       RATES FOR THIS TIME STEP      L**3/T
     ------------------                 ------------------------

           IN:                                      IN:
           ---                                      ---
             STORAGE =      312502.2188               STORAGE =        1276.6620
       CONSTANT HEAD =           0.0000         CONSTANT HEAD =           0.0000
               WELLS =           0.0000                 WELLS =           0.0000
     HEAD DEP BOUNDS =        2064.4387       HEAD DEP BOUNDS =          80.6402

            TOTAL IN =      314566.6562              TOTAL IN =        1357.3021

          OUT:                                     OUT:
          ----                                     ----
             STORAGE =           0.0000               STORAGE =           0.0000
       CONSTANT HEAD =           0.0000         CONSTANT HEAD =           0.0000
               WELLS =           0.0000                 WELLS =           0.0000
     HEAD DEP BOUNDS =      314567.8750       HEAD DEP BOUNDS =        1357.3862

           TOTAL OUT =      314567.8750             TOTAL OUT =        1357.3862

            IN - OUT =          -1.2188              IN - OUT =      -8.4106E-02

 PERCENT DISCREPANCY =          -0.00     PERCENT DISCREPANCY =          -0.01






         TIME SUMMARY AT END OF TIME STEP   96 IN STRESS PERIOD    2
                    SECONDS     MINUTES      HOURS       DAYS        YEARS
                    -----------------------------------------------------------
   TIME STEP LENGTH  86400.      1440.0      24.000      1.0000     2.73785E-03
 STRESS PERIOD TIME 8.29440E+06 1.38240E+05  2304.0      96.000     0.26283    
         TOTAL TIME 8.38080E+06 1.39680E+05  2328.0      97.000     0.26557    
1
 
 SOLVING FOR HEAD 

 OUTPUT CONTROL FOR STRESS PERIOD    2   TIME STEP   97
    SAVE HEAD FOR ALL LAYERS
    SAVE DRAWDOWN FOR ALL LAYERS
    SAVE BUDGET
    PRINT HEAD FOR ALL LAYERS
    PRINT BUDGET
 UBDSV1 SAVING "         STORAGE" ON UNIT  53 AT TIME STEP 97, STRESS PERIOD   2
 UBDSV2 SAVING "   CONSTANT HEAD" ON UNIT  53 AT TIME STEP 97, STRESS PERIOD   2
 UBDSV1 SAVING "FLOW RIGHT FACE " ON UNIT  53 AT TIME STEP 97, STRESS PERIOD   2
 UBDSV1 SAVING "FLOW FRONT FACE " ON UNIT  53 AT TIME STEP 97, STRESS PERIOD   2
 UBDSV1 SAVING "FLOW LOWER FACE " ON UNIT  53 AT TIME STEP 97, STRESS PERIOD   2
1
              HEAD IN LAYER   1 AT END OF TIME STEP  97 IN STRESS PERIOD    2
  ---------------------------------------------------------------------------

            1           2           3           4           5           6           7           8           9          10
 ........................................................................................................................
   1   10.000       9.866       9.673       9.351       8.814       7.962       6.696       4.939       2.681      3.9320E-03
   2   10.000       9.866       9.673       9.351       8.814       7.962       6.696       4.939       2.681      3.9320E-03
   3   10.000       9.866       9.673       9.351       8.814       7.962       6.696       4.939       2.681      3.9320E-03
   4   10.000       9.866       9.673       9.351       8.814       7.962       6.696       4.939       2.681      3.9320E-03
   5   10.000       9.866       9.673       9.351       8.814       7.962       6.696       4.939       2.681      3.9320E-03
   6   10.000       9.866       9.673       9.351       8.814       7.962       6.696       4.939       2.681      3.9320E-03
   7   10.000       9.866       9.673       9.351       8.814       7.962       6.696       4.939       2.681      3.9320E-03
   8   10.000       9.866       9.673       9.351       8.814       7.962       6.696       4.939       2.681      3.9320E-03
   9   10.000       9.866       9.673       9.351       8.814       7.962       6.696       4.939       2.681      3.9320E-03
  10   10.000       9.866       9.673       9.351       8.814       7.962       6.696       4.939       2.681      3.9320E-03
1
              HEAD IN LAYER   2 AT END OF TIME STEP  97 IN STRESS PERIOD    2
  ---------------------------------------------------------------------------

            1           2           3           4           5           6           7           8           9          10
 ........................................................................................................................
   1   10.000       9.862       9.664       9.337       8.795       7.938       6.668       4.912       2.662      7.3471E-03
   2   10.000       9.862       9.664       9.337       8.795       7.938       6.668       4.912       2.662      7.3471E-03
   3   10.000       9.862       9.664       9.337       8.795       7.938       6.668       4.912       2.662      7.3471E-03
   4   10.000       9.862       9.664       9.337       8.795       7.938       6.668       4.912       2.662      7.3471E-03
   5   10.000       9.862       9.664       9.337       8.795       7.938       6.668       4.912       2.662      7.3471E-03
   6   10.000       9.862       9.664       9.337       8.795       7.938       6.668       4.912       2.662      7.3471E-03
   7   10.000       9.862       9.664       9.337       8.795       7.938       6.668       4.912       2.662      7.3471E-03
   8   10.000       9.862       9.664       9.337       8.795       7.938       6.668       4.912       2.662      7.3471E-03
   9   10.000       9.862       9.664       9.337       8.795       7.938       6.668       4.912       2.662      7.3471E-03
  10   10.000       9.862       9.664       9.337       8.795       7.938       6.668       4.912       2.662      7.3471E-03
1
              HEAD IN LAYER   3 AT END OF TIME STEP  97 IN STRESS PERIOD    2
  ---------------------------------------------------------------------------

            1           2           3           4           5           6           7           8           9          10
 ........................................................................................................................
   1   10.000       9.860       9.659       9.328       8.781       7.920       6.647       4.891       2.645      7.8487E-03
   2   10.000       9.860       9.659       9.328       8.781       7.920       6.647       4.891       2.645      7.8487E-03
   3   10.000       9.860       9.659       9.328       8.781       7.920       6.647       4.891       2.645      7.8487E-03
   4   10.000       9.859       9.659       9.328       8.781       7.920       6.647       4.891       2.645      7.8487E-03
   5   10.000       9.859       9.659       9.328       8.781       7.920       6.647       4.891       2.645      7.8487E-03
   6   10.000       9.859       9.659       9.328       8.781       7.920       6.647       4.891       2.645      7.8487E-03
   7   10.000       9.859       9.659       9.328       8.781       7.920       6.647       4.891       2.645      7.8487E-03
   8   10.000       9.859       9.659       9.328       8.781       7.920       6.647       4.891       2.645      7.8487E-03
   9   10.000       9.859       9.659       9.328       8.781       7.920       6.647       4.891       2.645      7.8487E-03
  10   10.000       9.859       9.659       9.328       8.781       7.920       6.647       4.891       2.645      7.8487E-03
1
              HEAD IN LAYER   4 AT END OF TIME STEP  97 IN STRESS PERIOD    2
  ---------------------------------------------------------------------------

            1           2           3           4           5           6           7           8           9          10
 ........................................................................................................................
   1   10.000       9.858       9.656       9.323       8.774       7.911       6.637       4.881       2.636      7.8816E-03
   2   10.000       9.858       9.656       9.323       8.774       7.911       6.637       4.881       2.636      7.8816E-03
   3   10.000       9.858       9.656       9.323       8.774       7.911       6.637       4.881       2.636      7.8816E-03
   4   10.000       9.858       9.656       9.323       8.774       7.911       6.637       4.881       2.636      7.8816E-03
   5   10.000       9.858       9.656       9.323       8.774       7.911       6.637       4.881       2.636      7.8816E-03
   6   10.000       9.858       9.656       9.323       8.774       7.911       6.637       4.881       2.636      7.8816E-03
   7   10.000       9.858       9.656       9.323       8.774       7.911       6.637       4.881       2.636      7.8816E-03
   8   10.000       9.858       9.656       9.323       8.774       7.911       6.637       4.881       2.636      7.8816E-03
   9   10.000       9.858       9.656       9.323       8.774       7.911       6.637       4.881       2.636      7.8816E-03
  10   10.000       9.858       9.656       9.323       8.774       7.911       6.637       4.881       2.636      7.8816E-03

 HEAD WILL BE SAVED ON UNIT   51 AT END OF TIME STEP   97, STRESS PERIOD    2

 DRAWDOWN WILL BE SAVED ON UNIT   52 AT END OF TIME STEP   97, STRESS PERIOD    2
1
  VOLUMETRIC BUDGET FOR ENTIRE MODEL AT END OF TIME STEP   97, STRESS PERIOD   2
  ------------------------------------------------------------------------------

     CUMULATIVE VOLUMES      L**3       RATES FOR THIS TIME STEP      L**3/T
     ------------------                 ------------------------

           IN:                                      IN:
           ---                                      ---
             STORAGE =      313769.9375               STORAGE =        1267.7158
       CONSTANT HEAD =           0.0000         CONSTANT HEAD =           0.0000
               WELLS =           0.0000                 WELLS =           0.0000
     HEAD DEP BOUNDS =        2147.1995       HEAD DEP BOUNDS =          82.7608

            TOTAL IN =      315917.1250              TOTAL IN =        1350.4766

          OUT:                                     OUT:
          ----                                     ----
             STORAGE =           0.0000               STORAGE =           0.0000
       CONSTANT HEAD =           0.0000         CONSTANT HEAD =           0.0000
               WELLS =           0.0000                 WELLS =           0.0000
     HEAD DEP BOUNDS =      315918.3438       HEAD DEP BOUNDS =        1350.4703

           TOTAL OUT =      315918.3438             TOTAL OUT =        1350.4703

            IN - OUT =          -1.2188              IN - OUT =       6.2256E-03

 PERCENT DISCREPANCY =          -0.00     PERCENT DISCREPANCY =           0.00






         TIME SUMMARY AT END OF TIME STEP   97 IN STRESS PERIOD    2
                    SECONDS     MINUTES      HOURS       DAYS        YEARS
                    -----------------------------------------------------------
   TIME STEP LENGTH  86400.      1440.0      24.000      1.0000     2.73785E-03
 STRESS PERIOD TIME 8.38080E+06 1.39680E+05  2328.0      97.000     0.26557    
         TOTAL TIME 8.46720E+06 1.41120E+05  2352.0      98.000     0.26831    
1
 
 SOLVING FOR HEAD 

 OUTPUT CONTROL FOR STRESS PERIOD    2   TIME STEP   98
    SAVE HEAD FOR ALL LAYERS
    SAVE DRAWDOWN FOR ALL LAYERS
    SAVE BUDGET
    PRINT HEAD FOR ALL LAYERS
    PRINT BUDGET
 UBDSV1 SAVING "         STORAGE" ON UNIT  53 AT TIME STEP 98, STRESS PERIOD   2
 UBDSV2 SAVING "   CONSTANT HEAD" ON UNIT  53 AT TIME STEP 98, STRESS PERIOD   2
 UBDSV1 SAVING "FLOW RIGHT FACE " ON UNIT  53 AT TIME STEP 98, STRESS PERIOD   2
 UBDSV1 SAVING "FLOW FRONT FACE " ON UNIT  53 AT TIME STEP 98, STRESS PERIOD   2
 UBDSV1 SAVING "FLOW LOWER FACE " ON UNIT  53 AT TIME STEP 98, STRESS PERIOD   2
1
              HEAD IN LAYER   1 AT END OF TIME STEP  98 IN STRESS PERIOD    2
  ---------------------------------------------------------------------------

            1           2           3           4           5           6           7           8           9          10
 ........................................................................................................................
   1   10.000       9.862       9.665       9.338       8.797       7.941       6.672       4.917       2.668      3.9102E-03
   2   10.000       9.862       9.665       9.338       8.797       7.941       6.672       4.917       2.668      3.9102E-03
   3   10.000       9.862       9.665       9.338       8.797       7.941       6.672       4.917       2.668      3.9102E-03
   4   10.000       9.862       9.665       9.338       8.797       7.941       6.672       4.917       2.668      3.9102E-03
   5   10.000       9.862       9.665       9.338       8.797       7.941       6.672       4.917       2.668      3.9102E-03
   6   10.000       9.862       9.665       9.338       8.797       7.941       6.672       4.917       2.668      3.9102E-03
   7   10.000       9.862       9.665       9.338       8.797       7.941       6.672       4.917       2.668      3.9102E-03
   8   10.000       9.862       9.665       9.338       8.797       7.941       6.672       4.917       2.668      3.9102E-03
   9   10.000       9.862       9.665       9.338       8.797       7.941       6.672       4.917       2.668      3.9102E-03
  10   10.000       9.862       9.665       9.338       8.797       7.941       6.672       4.917       2.668      3.9102E-03
1
              HEAD IN LAYER   2 AT END OF TIME STEP  98 IN STRESS PERIOD    2
  ---------------------------------------------------------------------------

            1           2           3           4           5           6           7           8           9          10
 ........................................................................................................................
   1   10.000       9.859       9.657       9.325       8.777       7.916       6.644       4.891       2.648      7.3102E-03
   2   10.000       9.859       9.657       9.325       8.777       7.916       6.644       4.891       2.648      7.3102E-03
   3   10.000       9.859       9.657       9.325       8.777       7.916       6.644       4.891       2.648      7.3102E-03
   4   10.000       9.859       9.657       9.325       8.777       7.916       6.644       4.891       2.648      7.3102E-03
   5   10.000       9.859       9.657       9.325       8.777       7.916       6.644       4.891       2.648      7.3102E-03
   6   10.000       9.859       9.657       9.325       8.777       7.916       6.644       4.891       2.648      7.3102E-03
   7   10.000       9.859       9.657       9.325       8.777       7.916       6.644       4.891       2.648      7.3102E-03
   8   10.000       9.859       9.657       9.325       8.777       7.916       6.644       4.891       2.648      7.3102E-03
   9   10.000       9.859       9.657       9.325       8.777       7.916       6.644       4.891       2.648      7.3102E-03
  10   10.000       9.859       9.657       9.325       8.777       7.916       6.644       4.891       2.648      7.3102E-03
1
              HEAD IN LAYER   3 AT END OF TIME STEP  98 IN STRESS PERIOD    2
  ---------------------------------------------------------------------------

            1           2           3           4           5           6           7           8           9          10
 ........................................................................................................................
   1   10.000       9.856       9.651       9.316       8.764       7.899       6.624       4.870       2.632      7.8099E-03
   2   10.000       9.856       9.651       9.316       8.764       7.899       6.624       4.870       2.632      7.8099E-03
   3   10.000       9.856       9.651       9.316       8.764       7.899       6.624       4.870       2.632      7.8099E-03
   4   10.000       9.856       9.651       9.316       8.764       7.899       6.624       4.870       2.632      7.8099E-03
   5   10.000       9.856       9.651       9.316       8.764       7.899       6.624       4.870       2.632      7.8099E-03
   6   10.000       9.856       9.651       9.316       8.764       7.899       6.624       4.870       2.632      7.8099E-03
   7   10.000       9.856       9.651       9.316       8.764       7.899       6.624       4.870       2.632      7.8099E-03
   8   10.000       9.856       9.651       9.316       8.764       7.899       6.624       4.870       2.632      7.8099E-03
   9   10.000       9.856       9.651       9.316       8.764       7.899       6.624       4.870       2.632      7.8099E-03
  10   10.000       9.856       9.651       9.316       8.764       7.899       6.624       4.870       2.632      7.8099E-03
1
              HEAD IN LAYER   4 AT END OF TIME STEP  98 IN STRESS PERIOD    2
  ---------------------------------------------------------------------------

            1           2           3           4           5           6           7           8           9          10
 ........................................................................................................................
   1   10.000       9.855       9.649       9.311       8.757       7.890       6.614       4.860       2.624      7.8428E-03
   2   10.000       9.855       9.649       9.311       8.757       7.890       6.614       4.860       2.624      7.8428E-03
   3   10.000       9.855       9.649       9.311       8.757       7.890       6.614       4.860       2.624      7.8428E-03
   4   10.000       9.855       9.649       9.311       8.757       7.890       6.614       4.860       2.624      7.8428E-03
   5   10.000       9.855       9.649       9.311       8.757       7.890       6.614       4.860       2.624      7.8428E-03
   6   10.000       9.855       9.649       9.311       8.757       7.890       6.614       4.860       2.624      7.8428E-03
   7   10.000       9.855       9.649       9.311       8.757       7.890       6.614       4.860       2.624      7.8428E-03
   8   10.000       9.855       9.649       9.311       8.757       7.890       6.614       4.860       2.624      7.8428E-03
   9   10.000       9.855       9.649       9.311       8.757       7.890       6.614       4.860       2.624      7.8428E-03
  10   10.000       9.855       9.649       9.311       8.757       7.890       6.614       4.860       2.624      7.8428E-03

 HEAD WILL BE SAVED ON UNIT   51 AT END OF TIME STEP   98, STRESS PERIOD    2

 DRAWDOWN WILL BE SAVED ON UNIT   52 AT END OF TIME STEP   98, STRESS PERIOD    2
1
  VOLUMETRIC BUDGET FOR ENTIRE MODEL AT END OF TIME STEP   98, STRESS PERIOD   2
  ------------------------------------------------------------------------------

     CUMULATIVE VOLUMES      L**3       RATES FOR THIS TIME STEP      L**3/T
     ------------------                 ------------------------

           IN:                                      IN:
           ---                                      ---
             STORAGE =      315028.7500               STORAGE =        1258.8246
       CONSTANT HEAD =           0.0000         CONSTANT HEAD =           0.0000
               WELLS =           0.0000                 WELLS =           0.0000
     HEAD DEP BOUNDS =        2232.0273       HEAD DEP BOUNDS =          84.8279

            TOTAL IN =      317260.7812              TOTAL IN =        1343.6526

          OUT:                                     OUT:
          ----                                     ----
             STORAGE =           0.0000               STORAGE =           0.0000
       CONSTANT HEAD =           0.0000         CONSTANT HEAD =           0.0000
               WELLS =           0.0000                 WELLS =           0.0000
     HEAD DEP BOUNDS =      317262.0000       HEAD DEP BOUNDS =        1343.6553

           TOTAL OUT =      317262.0000             TOTAL OUT =        1343.6553

            IN - OUT =          -1.2188              IN - OUT =      -2.6855E-03

 PERCENT DISCREPANCY =          -0.00     PERCENT DISCREPANCY =          -0.00






         TIME SUMMARY AT END OF TIME STEP   98 IN STRESS PERIOD    2
                    SECONDS     MINUTES      HOURS       DAYS        YEARS
                    -----------------------------------------------------------
   TIME STEP LENGTH  86400.      1440.0      24.000      1.0000     2.73785E-03
 STRESS PERIOD TIME 8.46720E+06 1.41120E+05  2352.0      98.000     0.26831    
         TOTAL TIME 8.55360E+06 1.42560E+05  2376.0      99.000     0.27105    
1
 
 SOLVING FOR HEAD 

 OUTPUT CONTROL FOR STRESS PERIOD    2   TIME STEP   99
    SAVE HEAD FOR ALL LAYERS
    SAVE DRAWDOWN FOR ALL LAYERS
    SAVE BUDGET
    PRINT HEAD FOR ALL LAYERS
    PRINT BUDGET
 UBDSV1 SAVING "         STORAGE" ON UNIT  53 AT TIME STEP 99, STRESS PERIOD   2
 UBDSV2 SAVING "   CONSTANT HEAD" ON UNIT  53 AT TIME STEP 99, STRESS PERIOD   2
 UBDSV1 SAVING "FLOW RIGHT FACE " ON UNIT  53 AT TIME STEP 99, STRESS PERIOD   2
 UBDSV1 SAVING "FLOW FRONT FACE " ON UNIT  53 AT TIME STEP 99, STRESS PERIOD   2
 UBDSV1 SAVING "FLOW LOWER FACE " ON UNIT  53 AT TIME STEP 99, STRESS PERIOD   2
1
              HEAD IN LAYER   1 AT END OF TIME STEP  99 IN STRESS PERIOD    2
  ---------------------------------------------------------------------------

            1           2           3           4           5           6           7           8           9          10
 ........................................................................................................................
   1   10.000       9.859       9.658       9.326       8.780       7.919       6.648       4.896       2.654      3.8888E-03
   2   10.000       9.859       9.658       9.326       8.780       7.919       6.648       4.896       2.654      3.8888E-03
   3   10.000       9.859       9.658       9.326       8.780       7.919       6.648       4.896       2.654      3.8888E-03
   4   10.000       9.859       9.658       9.326       8.780       7.919       6.648       4.896       2.654      3.8888E-03
   5   10.000       9.859       9.658       9.326       8.780       7.919       6.648       4.896       2.654      3.8888E-03
   6   10.000       9.859       9.658       9.326       8.780       7.919       6.648       4.896       2.654      3.8888E-03
   7   10.000       9.859       9.658       9.326       8.780       7.919       6.648       4.896       2.654      3.8888E-03
   8   10.000       9.859       9.658       9.326       8.780       7.919       6.648       4.896       2.654      3.8888E-03
   9   10.000       9.859       9.658       9.326       8.780       7.919       6.648       4.896       2.654      3.8888E-03
  10   10.000       9.859       9.658       9.326       8.780       7.919       6.648       4.896       2.654      3.8888E-03
1
              HEAD IN LAYER   2 AT END OF TIME STEP  99 IN STRESS PERIOD    2
  ---------------------------------------------------------------------------

            1           2           3           4           5           6           7           8           9          10
 ........................................................................................................................
   1   10.000       9.855       9.650       9.313       8.760       7.895       6.621       4.870       2.635      7.2738E-03
   2   10.000       9.855       9.650       9.313       8.760       7.895       6.621       4.870       2.635      7.2738E-03
   3   10.000       9.855       9.650       9.313       8.760       7.895       6.621       4.870       2.635      7.2738E-03
   4   10.000       9.855       9.650       9.313       8.760       7.895       6.621       4.870       2.635      7.2738E-03
   5   10.000       9.855       9.650       9.313       8.760       7.895       6.621       4.870       2.635      7.2738E-03
   6   10.000       9.855       9.650       9.313       8.760       7.895       6.621       4.870       2.635      7.2738E-03
   7   10.000       9.855       9.650       9.313       8.760       7.895       6.621       4.870       2.635      7.2738E-03
   8   10.000       9.855       9.650       9.313       8.760       7.895       6.621       4.870       2.635      7.2738E-03
   9   10.000       9.855       9.650       9.313       8.760       7.895       6.621       4.870       2.635      7.2738E-03
  10   10.000       9.855       9.650       9.313       8.760       7.895       6.621       4.870       2.635      7.2738E-03
1
              HEAD IN LAYER   3 AT END OF TIME STEP  99 IN STRESS PERIOD    2
  ---------------------------------------------------------------------------

            1           2           3           4           5           6           7           8           9          10
 ........................................................................................................................
   1   10.000       9.852       9.644       9.304       8.747       7.878       6.601       4.849       2.619      7.7716E-03
   2   10.000       9.852       9.644       9.304       8.747       7.878       6.601       4.849       2.619      7.7716E-03
   3   10.000       9.852       9.644       9.304       8.747       7.878       6.601       4.849       2.619      7.7716E-03
   4   10.000       9.852       9.644       9.304       8.747       7.878       6.601       4.849       2.619      7.7716E-03
   5   10.000       9.852       9.644       9.304       8.747       7.878       6.601       4.849       2.619      7.7716E-03
   6   10.000       9.852       9.644       9.304       8.747       7.878       6.601       4.849       2.619      7.7716E-03
   7   10.000       9.852       9.644       9.304       8.747       7.878       6.601       4.849       2.619      7.7716E-03
   8   10.000       9.852       9.644       9.304       8.747       7.878       6.601       4.849       2.619      7.7716E-03
   9   10.000       9.852       9.644       9.304       8.747       7.878       6.601       4.849       2.619      7.7716E-03
  10   10.000       9.852       9.644       9.304       8.747       7.878       6.601       4.849       2.619      7.7716E-03
1
              HEAD IN LAYER   4 AT END OF TIME STEP  99 IN STRESS PERIOD    2
  ---------------------------------------------------------------------------

            1           2           3           4           5           6           7           8           9          10
 ........................................................................................................................
   1   10.000       9.851       9.641       9.299       8.740       7.869       6.591       4.839       2.611      7.8047E-03
   2   10.000       9.851       9.641       9.299       8.740       7.869       6.591       4.839       2.611      7.8047E-03
   3   10.000       9.851       9.641       9.299       8.740       7.869       6.591       4.839       2.611      7.8047E-03
   4   10.000       9.851       9.641       9.299       8.740       7.869       6.591       4.839       2.611      7.8047E-03
   5   10.000       9.851       9.641       9.299       8.740       7.869       6.591       4.839       2.611      7.8047E-03
   6   10.000       9.851       9.641       9.299       8.740       7.869       6.591       4.839       2.611      7.8047E-03
   7   10.000       9.851       9.641       9.299       8.740       7.869       6.591       4.839       2.611      7.8047E-03
   8   10.000       9.851       9.641       9.299       8.740       7.869       6.591       4.839       2.611      7.8047E-03
   9   10.000       9.851       9.641       9.299       8.740       7.869       6.591       4.839       2.611      7.8047E-03
  10   10.000       9.851       9.641       9.299       8.740       7.869       6.591       4.839       2.611      7.8047E-03

 HEAD WILL BE SAVED ON UNIT   51 AT END OF TIME STEP   99, STRESS PERIOD    2

 DRAWDOWN WILL BE SAVED ON UNIT   52 AT END OF TIME STEP   99, STRESS PERIOD    2
1
  VOLUMETRIC BUDGET FOR ENTIRE MODEL AT END OF TIME STEP   99, STRESS PERIOD   2
  ------------------------------------------------------------------------------

     CUMULATIVE VOLUMES      L**3       RATES FOR THIS TIME STEP      L**3/T
     ------------------                 ------------------------

           IN:                                      IN:
           ---                                      ---
             STORAGE =      316278.7500               STORAGE =        1250.0079
       CONSTANT HEAD =           0.0000         CONSTANT HEAD =           0.0000
               WELLS =           0.0000                 WELLS =           0.0000
     HEAD DEP BOUNDS =        2318.9368       HEAD DEP BOUNDS =          86.9094

            TOTAL IN =      318597.6875              TOTAL IN =        1336.9172

          OUT:                                     OUT:
          ----                                     ----
             STORAGE =           0.0000               STORAGE =           0.0000
       CONSTANT HEAD =           0.0000         CONSTANT HEAD =           0.0000
               WELLS =           0.0000                 WELLS =           0.0000
     HEAD DEP BOUNDS =      318598.9375       HEAD DEP BOUNDS =        1336.9478

           TOTAL OUT =      318598.9375             TOTAL OUT =        1336.9478

            IN - OUT =          -1.2500              IN - OUT =      -3.0518E-02

 PERCENT DISCREPANCY =          -0.00     PERCENT DISCREPANCY =          -0.00






         TIME SUMMARY AT END OF TIME STEP   99 IN STRESS PERIOD    2
                    SECONDS     MINUTES      HOURS       DAYS        YEARS
                    -----------------------------------------------------------
   TIME STEP LENGTH  86400.      1440.0      24.000      1.0000     2.73785E-03
 STRESS PERIOD TIME 8.55360E+06 1.42560E+05  2376.0      99.000     0.27105    
         TOTAL TIME 8.64000E+06 1.44000E+05  2400.0      100.00     0.27379    
1
 
 SOLVING FOR HEAD 

 OUTPUT CONTROL FOR STRESS PERIOD    2   TIME STEP  100
    SAVE HEAD FOR ALL LAYERS
    SAVE DRAWDOWN FOR ALL LAYERS
    SAVE BUDGET
    PRINT HEAD FOR ALL LAYERS
    PRINT BUDGET
 UBDSV1 SAVING "         STORAGE" ON UNIT  53 AT TIME STEP100, STRESS PERIOD   2
 UBDSV2 SAVING "   CONSTANT HEAD" ON UNIT  53 AT TIME STEP100, STRESS PERIOD   2
 UBDSV1 SAVING "FLOW RIGHT FACE " ON UNIT  53 AT TIME STEP100, STRESS PERIOD   2
 UBDSV1 SAVING "FLOW FRONT FACE " ON UNIT  53 AT TIME STEP100, STRESS PERIOD   2
 UBDSV1 SAVING "FLOW LOWER FACE " ON UNIT  53 AT TIME STEP100, STRESS PERIOD   2
1
              HEAD IN LAYER   1 AT END OF TIME STEP 100 IN STRESS PERIOD    2
  ---------------------------------------------------------------------------

            1           2           3           4           5           6           7           8           9          10
 ........................................................................................................................
   1   10.000       9.855       9.650       9.314       8.762       7.898       6.625       4.875       2.641      3.8678E-03
   2   10.000       9.855       9.650       9.314       8.762       7.898       6.625       4.875       2.641      3.8678E-03
   3   10.000       9.855       9.650       9.314       8.762       7.898       6.625       4.875       2.641      3.8678E-03
   4   10.000       9.855       9.650       9.314       8.762       7.898       6.625       4.875       2.641      3.8678E-03
   5   10.000       9.855       9.650       9.314       8.762       7.898       6.625       4.875       2.641      3.8678E-03
   6   10.000       9.855       9.650       9.314       8.762       7.898       6.625       4.875       2.641      3.8678E-03
   7   10.000       9.855       9.650       9.314       8.762       7.898       6.625       4.875       2.641      3.8678E-03
   8   10.000       9.855       9.650       9.314       8.762       7.898       6.625       4.875       2.641      3.8678E-03
   9   10.000       9.855       9.650       9.314       8.762       7.898       6.625       4.875       2.641      3.8678E-03
  10   10.000       9.855       9.650       9.314       8.762       7.898       6.625       4.875       2.641      3.8678E-03
1
              HEAD IN LAYER   2 AT END OF TIME STEP 100 IN STRESS PERIOD    2
  ---------------------------------------------------------------------------

            1           2           3           4           5           6           7           8           9          10
 ........................................................................................................................
   1   10.000       9.852       9.642       9.301       8.743       7.874       6.598       4.849       2.622      7.2380E-03
   2   10.000       9.852       9.642       9.301       8.743       7.874       6.598       4.849       2.622      7.2380E-03
   3   10.000       9.852       9.642       9.301       8.743       7.874       6.598       4.849       2.622      7.2380E-03
   4   10.000       9.852       9.642       9.301       8.743       7.874       6.598       4.849       2.622      7.2380E-03
   5   10.000       9.852       9.642       9.301       8.743       7.874       6.598       4.849       2.622      7.2380E-03
   6   10.000       9.852       9.642       9.301       8.743       7.874       6.598       4.849       2.622      7.2380E-03
   7   10.000       9.852       9.642       9.301       8.743       7.874       6.598       4.849       2.622      7.2380E-03
   8   10.000       9.852       9.642       9.301       8.743       7.874       6.598       4.849       2.622      7.2380E-03
   9   10.000       9.852       9.642       9.301       8.743       7.874       6.598       4.849       2.622      7.2380E-03
  10   10.000       9.852       9.642       9.301       8.743       7.874       6.598       4.849       2.622      7.2380E-03
1
              HEAD IN LAYER   3 AT END OF TIME STEP 100 IN STRESS PERIOD    2
  ---------------------------------------------------------------------------

            1           2           3           4           5           6           7           8           9          10
 ........................................................................................................................
   1   10.000       9.849       9.636       9.292       8.730       7.857       6.578       4.829       2.606      7.7339E-03
   2   10.000       9.849       9.636       9.292       8.730       7.857       6.578       4.829       2.606      7.7339E-03
   3   10.000       9.849       9.636       9.292       8.730       7.857       6.578       4.829       2.606      7.7339E-03
   4   10.000       9.849       9.636       9.292       8.730       7.857       6.578       4.829       2.606      7.7339E-03
   5   10.000       9.849       9.636       9.292       8.730       7.857       6.578       4.829       2.606      7.7339E-03
   6   10.000       9.849       9.636       9.292       8.730       7.857       6.578       4.829       2.606      7.7339E-03
   7   10.000       9.849       9.636       9.292       8.730       7.857       6.578       4.829       2.606      7.7339E-03
   8   10.000       9.849       9.636       9.292       8.730       7.857       6.578       4.829       2.606      7.7339E-03
   9   10.000       9.849       9.636       9.292       8.730       7.857       6.578       4.829       2.606      7.7339E-03
  10   10.000       9.849       9.636       9.292       8.730       7.857       6.578       4.829       2.606      7.7339E-03
1
              HEAD IN LAYER   4 AT END OF TIME STEP 100 IN STRESS PERIOD    2
  ---------------------------------------------------------------------------

            1           2           3           4           5           6           7           8           9          10
 ........................................................................................................................
   1   10.000       9.848       9.634       9.287       8.723       7.848       6.568       4.819       2.598      7.7670E-03
   2   10.000       9.848       9.634       9.287       8.723       7.848       6.568       4.819       2.598      7.7670E-03
   3   10.000       9.848       9.634       9.287       8.723       7.848       6.568       4.819       2.598      7.7670E-03
   4   10.000       9.848       9.634       9.287       8.723       7.848       6.568       4.819       2.598      7.7670E-03
   5   10.000       9.848       9.634       9.287       8.723       7.848       6.568       4.819       2.598      7.7670E-03
   6   10.000       9.848       9.634       9.287       8.723       7.848       6.568       4.819       2.598      7.7670E-03
   7   10.000       9.848       9.634       9.287       8.723       7.848       6.568       4.819       2.598      7.7670E-03
   8   10.000       9.848       9.634       9.287       8.723       7.848       6.568       4.819       2.598      7.7670E-03
   9   10.000       9.848       9.634       9.287       8.723       7.848       6.568       4.819       2.598      7.7670E-03
  10   10.000       9.848       9.634       9.287       8.723       7.848       6.568       4.819       2.598      7.7670E-03

 HEAD WILL BE SAVED ON UNIT   51 AT END OF TIME STEP  100, STRESS PERIOD    2

 DRAWDOWN WILL BE SAVED ON UNIT   52 AT END OF TIME STEP  100, STRESS PERIOD    2
1
  VOLUMETRIC BUDGET FOR ENTIRE MODEL AT END OF TIME STEP  100, STRESS PERIOD   2
  ------------------------------------------------------------------------------

     CUMULATIVE VOLUMES      L**3       RATES FOR THIS TIME STEP      L**3/T
     ------------------                 ------------------------

           IN:                                      IN:
           ---                                      ---
             STORAGE =      317520.0312               STORAGE =        1241.2906
       CONSTANT HEAD =           0.0000         CONSTANT HEAD =           0.0000
               WELLS =           0.0000                 WELLS =           0.0000
     HEAD DEP BOUNDS =        2407.9404       HEAD DEP BOUNDS =          89.0036

            TOTAL IN =      319927.9688              TOTAL IN =        1330.2942

          OUT:                                     OUT:
          ----                                     ----
             STORAGE =           0.0000               STORAGE =           0.0000
       CONSTANT HEAD =           0.0000         CONSTANT HEAD =           0.0000
               WELLS =           0.0000                 WELLS =           0.0000
     HEAD DEP BOUNDS =      319929.2812       HEAD DEP BOUNDS =        1330.3365

           TOTAL OUT =      319929.2812             TOTAL OUT =        1330.3365

            IN - OUT =          -1.3125              IN - OUT =      -4.2358E-02

 PERCENT DISCREPANCY =          -0.00     PERCENT DISCREPANCY =          -0.00






         TIME SUMMARY AT END OF TIME STEP  100 IN STRESS PERIOD    2
                    SECONDS     MINUTES      HOURS       DAYS        YEARS
                    -----------------------------------------------------------
   TIME STEP LENGTH  86400.      1440.0      24.000      1.0000     2.73785E-03
 STRESS PERIOD TIME 8.64000E+06 1.44000E+05  2400.0      100.00     0.27379    
         TOTAL TIME 8.72640E+06 1.45440E+05  2424.0      101.00     0.27652    
1
1
                            STRESS PERIOD NO.    3, LENGTH =   100.0000    
                            -----------------------------------------------

                              NUMBER OF TIME STEPS =   100

                               MULTIPLIER FOR DELT =     1.000

                            INITIAL TIME STEP SIZE =   1.000000    

 WELL NO.  LAYER   ROW   COL   STRESS RATE         
 --------------------------------------------------
      1      1      5      5      -500.0    

      1 WELL 

 REUSING NON-PARAMETER GHB CELLS FROM LAST STRESS PERIOD

     80 GHB CELLS
 
 SOLVING FOR HEAD 

 OUTPUT CONTROL FOR STRESS PERIOD    3   TIME STEP    1
    SAVE HEAD FOR ALL LAYERS
    SAVE DRAWDOWN FOR ALL LAYERS
    SAVE BUDGET
    PRINT HEAD FOR ALL LAYERS
    PRINT BUDGET
 UBDSV1 SAVING "         STORAGE" ON UNIT  53 AT TIME STEP  1, STRESS PERIOD   3
 UBDSV2 SAVING "   CONSTANT HEAD" ON UNIT  53 AT TIME STEP  1, STRESS PERIOD   3
 UBDSV1 SAVING "FLOW RIGHT FACE " ON UNIT  53 AT TIME STEP  1, STRESS PERIOD   3
 UBDSV1 SAVING "FLOW FRONT FACE " ON UNIT  53 AT TIME STEP  1, STRESS PERIOD   3
 UBDSV1 SAVING "FLOW LOWER FACE " ON UNIT  53 AT TIME STEP  1, STRESS PERIOD   3
1
              HEAD IN LAYER   1 AT END OF TIME STEP   1 IN STRESS PERIOD    3
  ---------------------------------------------------------------------------

            1           2           3           4           5           6           7           8           9          10
 ........................................................................................................................
   1   10.000       9.852       9.643       9.302       8.745       7.877       6.602       4.854       2.628      3.8471E-03
   2   10.000       9.852       9.643       9.302       8.745       7.877       6.602       4.854       2.628      3.8471E-03
   3   10.000       9.852       9.643       9.302       8.745       7.877       6.602       4.854       2.628      3.8471E-03
   4   10.000       9.852       9.643       9.301       8.733       7.875       6.602       4.854       2.628      3.8471E-03
   5   10.000       9.852       9.642       9.290       8.327       7.864       6.601       4.854       2.628      3.8471E-03
   6   10.000       9.852       9.643       9.301       8.733       7.875       6.602       4.854       2.628      3.8471E-03
   7   10.000       9.852       9.643       9.302       8.745       7.877       6.602       4.854       2.628      3.8471E-03
   8   10.000       9.852       9.643       9.302       8.745       7.877       6.602       4.854       2.628      3.8471E-03
   9   10.000       9.852       9.643       9.302       8.745       7.877       6.602       4.854       2.628      3.8471E-03
  10   10.000       9.852       9.643       9.302       8.745       7.877       6.602       4.854       2.628      3.8471E-03
1
              HEAD IN LAYER   2 AT END OF TIME STEP   1 IN STRESS PERIOD    3
  ---------------------------------------------------------------------------

            1           2           3           4           5           6           7           8           9          10
 ........................................................................................................................
   1   10.000       9.848       9.635       9.289       8.726       7.853       6.575       4.829       2.610      7.2027E-03
   2   10.000       9.848       9.635       9.289       8.726       7.853       6.575       4.829       2.610      7.2027E-03
   3   10.000       9.848       9.634       9.288       8.725       7.852       6.575       4.829       2.610      7.2027E-03
   4   10.000       9.848       9.634       9.285       8.704       7.849       6.575       4.829       2.610      7.2026E-03
   5   10.000       9.848       9.633       9.266       8.393       7.830       6.573       4.829       2.610      7.2026E-03
   6   10.000       9.848       9.634       9.285       8.704       7.849       6.575       4.829       2.610      7.2026E-03
   7   10.000       9.848       9.634       9.288       8.725       7.852       6.575       4.829       2.610      7.2027E-03
   8   10.000       9.848       9.635       9.289       8.726       7.853       6.575       4.829       2.610      7.2027E-03
   9   10.000       9.848       9.635       9.289       8.726       7.853       6.575       4.829       2.610      7.2027E-03
  10   10.000       9.848       9.635       9.289       8.726       7.853       6.575       4.829       2.610      7.2027E-03
1
              HEAD IN LAYER   3 AT END OF TIME STEP   1 IN STRESS PERIOD    3
  ---------------------------------------------------------------------------

            1           2           3           4           5           6           7           8           9          10
 ........................................................................................................................
   1   10.000       9.845       9.629       9.280       8.713       7.836       6.555       4.809       2.594      7.6968E-03
   2   10.000       9.845       9.629       9.279       8.713       7.836       6.555       4.809       2.594      7.6968E-03
   3   10.000       9.845       9.629       9.279       8.711       7.835       6.555       4.809       2.594      7.6968E-03
   4   10.000       9.845       9.628       9.274       8.684       7.830       6.555       4.809       2.594      7.6968E-03
   5   10.000       9.845       9.626       9.251       8.435       7.807       6.553       4.809       2.594      7.6968E-03
   6   10.000       9.845       9.628       9.274       8.684       7.830       6.555       4.809       2.594      7.6968E-03
   7   10.000       9.845       9.629       9.279       8.711       7.835       6.555       4.809       2.594      7.6968E-03
   8   10.000       9.845       9.629       9.279       8.713       7.836       6.555       4.809       2.594      7.6968E-03
   9   10.000       9.845       9.629       9.280       8.713       7.836       6.555       4.809       2.594      7.6968E-03
  10   10.000       9.845       9.629       9.280       8.713       7.836       6.555       4.809       2.594      7.6968E-03
1
              HEAD IN LAYER   4 AT END OF TIME STEP   1 IN STRESS PERIOD    3
  ---------------------------------------------------------------------------

            1           2           3           4           5           6           7           8           9          10
 ........................................................................................................................
   1   10.000       9.844       9.626       9.275       8.707       7.827       6.545       4.799       2.586      7.7300E-03
   2   10.000       9.844       9.626       9.275       8.706       7.827       6.545       4.799       2.586      7.7300E-03
   3   10.000       9.844       9.626       9.274       8.703       7.826       6.545       4.799       2.586      7.7299E-03
   4   10.000       9.844       9.625       9.269       8.675       7.821       6.545       4.799       2.586      7.7299E-03
   5   10.000       9.844       9.623       9.244       8.454       7.796       6.542       4.799       2.586      7.7299E-03
   6   10.000       9.844       9.625       9.269       8.675       7.821       6.545       4.799       2.586      7.7299E-03
   7   10.000       9.844       9.626       9.274       8.703       7.826       6.545       4.799       2.586      7.7299E-03
   8   10.000       9.844       9.626       9.275       8.706       7.827       6.545       4.799       2.586      7.7300E-03
   9   10.000       9.844       9.626       9.275       8.707       7.827       6.545       4.799       2.586      7.7300E-03
  10   10.000       9.844       9.626       9.275       8.707       7.827       6.545       4.799       2.586      7.7300E-03

 HEAD WILL BE SAVED ON UNIT   51 AT END OF TIME STEP    1, STRESS PERIOD    3

 DRAWDOWN WILL BE SAVED ON UNIT   52 AT END OF TIME STEP    1, STRESS PERIOD    3
1
  VOLUMETRIC BUDGET FOR ENTIRE MODEL AT END OF TIME STEP    1, STRESS PERIOD   3
  ------------------------------------------------------------------------------

     CUMULATIVE VOLUMES      L**3       RATES FOR THIS TIME STEP      L**3/T
     ------------------                 ------------------------

           IN:                                      IN:
           ---                                      ---
             STORAGE =      319252.6875               STORAGE =        1732.6411
       CONSTANT HEAD =           0.0000         CONSTANT HEAD =           0.0000
               WELLS =           0.0000                 WELLS =           0.0000
     HEAD DEP BOUNDS =        2499.0737       HEAD DEP BOUNDS =          91.1332

            TOTAL IN =      321751.7500              TOTAL IN =        1823.7743

          OUT:                                     OUT:
          ----                                     ----
             STORAGE =           0.0000               STORAGE =           0.0000
       CONSTANT HEAD =           0.0000         CONSTANT HEAD =           0.0000
               WELLS =         500.0000                 WELLS =         500.0000
     HEAD DEP BOUNDS =      321253.0938       HEAD DEP BOUNDS =        1323.8245

           TOTAL OUT =      321753.0938             TOTAL OUT =        1823.8245

            IN - OUT =          -1.3438              IN - OUT =      -5.0171E-02

 PERCENT DISCREPANCY =          -0.00     PERCENT DISCREPANCY =          -0.00






         TIME SUMMARY AT END OF TIME STEP    1 IN STRESS PERIOD    3
                    SECONDS     MINUTES      HOURS       DAYS        YEARS
                    -----------------------------------------------------------
   TIME STEP LENGTH  86400.      1440.0      24.000      1.0000     2.73785E-03
 STRESS PERIOD TIME  86400.      1440.0      24.000      1.0000     2.73785E-03
         TOTAL TIME 8.81280E+06 1.46880E+05  2448.0      102.00     0.27926    
1
 
 SOLVING FOR HEAD 

 OUTPUT CONTROL FOR STRESS PERIOD    3   TIME STEP    2
    SAVE HEAD FOR ALL LAYERS
    SAVE DRAWDOWN FOR ALL LAYERS
    SAVE BUDGET
    PRINT HEAD FOR ALL LAYERS
    PRINT BUDGET
 UBDSV1 SAVING "         STORAGE" ON UNIT  53 AT TIME STEP  2, STRESS PERIOD   3
 UBDSV2 SAVING "   CONSTANT HEAD" ON UNIT  53 AT TIME STEP  2, STRESS PERIOD   3
 UBDSV1 SAVING "FLOW RIGHT FACE " ON UNIT  53 AT TIME STEP  2, STRESS PERIOD   3
 UBDSV1 SAVING "FLOW FRONT FACE " ON UNIT  53 AT TIME STEP  2, STRESS PERIOD   3
 UBDSV1 SAVING "FLOW LOWER FACE " ON UNIT  53 AT TIME STEP  2, STRESS PERIOD   3
1
              HEAD IN LAYER   1 AT END OF TIME STEP   2 IN STRESS PERIOD    3
  ---------------------------------------------------------------------------

            1           2           3           4           5           6           7           8           9          10
 ........................................................................................................................
   1   10.000       9.848       9.635       9.290       8.729       7.856       6.579       4.834       2.615      3.8266E-03
   2   10.000       9.848       9.635       9.290       8.728       7.856       6.579       4.834       2.615      3.8266E-03
   3   10.000       9.848       9.635       9.289       8.726       7.855       6.579       4.834       2.615      3.8265E-03
   4   10.000       9.848       9.635       9.285       8.694       7.850       6.578       4.833       2.615      3.8265E-03
   5   10.000       9.848       9.633       9.256       7.951       7.821       6.576       4.833       2.615      3.8265E-03
   6   10.000       9.848       9.635       9.285       8.694       7.850       6.578       4.833       2.615      3.8265E-03
   7   10.000       9.848       9.635       9.289       8.726       7.855       6.579       4.834       2.615      3.8265E-03
   8   10.000       9.848       9.635       9.290       8.728       7.856       6.579       4.834       2.615      3.8266E-03
   9   10.000       9.848       9.635       9.290       8.729       7.856       6.579       4.834       2.615      3.8266E-03
  10   10.000       9.848       9.635       9.290       8.729       7.856       6.579       4.834       2.615      3.8266E-03
1
              HEAD IN LAYER   2 AT END OF TIME STEP   2 IN STRESS PERIOD    3
  ---------------------------------------------------------------------------

            1           2           3           4           5           6           7           8           9          10
 ........................................................................................................................
   1   10.000       9.844       9.627       9.277       8.710       7.832       6.553       4.809       2.597      7.1678E-03
   2   10.000       9.844       9.627       9.276       8.709       7.832       6.553       4.809       2.597      7.1678E-03
   3   10.000       9.844       9.627       9.275       8.704       7.830       6.552       4.809       2.597      7.1678E-03
   4   10.000       9.844       9.625       9.266       8.655       7.822       6.551       4.809       2.597      7.1678E-03
   5   10.000       9.844       9.622       9.222       8.074       7.778       6.548       4.808       2.597      7.1677E-03
   6   10.000       9.844       9.625       9.266       8.655       7.822       6.551       4.809       2.597      7.1678E-03
   7   10.000       9.844       9.627       9.275       8.704       7.830       6.552       4.809       2.597      7.1678E-03
   8   10.000       9.844       9.627       9.276       8.709       7.832       6.553       4.809       2.597      7.1678E-03
   9   10.000       9.844       9.627       9.277       8.710       7.832       6.553       4.809       2.597      7.1678E-03
  10   10.000       9.844       9.627       9.277       8.710       7.832       6.553       4.809       2.597      7.1678E-03
1
              HEAD IN LAYER   3 AT END OF TIME STEP   2 IN STRESS PERIOD    3
  ---------------------------------------------------------------------------

            1           2           3           4           5           6           7           8           9          10
 ........................................................................................................................
   1   10.000       9.842       9.621       9.267       8.696       7.815       6.533       4.789       2.581      7.6602E-03
   2   10.000       9.842       9.621       9.267       8.696       7.815       6.533       4.789       2.581      7.6602E-03
   3   10.000       9.842       9.621       9.265       8.689       7.813       6.533       4.789       2.581      7.6602E-03
   4   10.000       9.842       9.619       9.254       8.631       7.802       6.531       4.789       2.581      7.6601E-03
   5   10.000       9.841       9.614       9.202       8.154       7.750       6.526       4.788       2.581      7.6600E-03
   6   10.000       9.842       9.619       9.254       8.631       7.802       6.531       4.789       2.581      7.6601E-03
   7   10.000       9.842       9.621       9.265       8.689       7.813       6.533       4.789       2.581      7.6602E-03
   8   10.000       9.842       9.621       9.267       8.696       7.815       6.533       4.789       2.581      7.6602E-03
   9   10.000       9.842       9.621       9.267       8.696       7.815       6.533       4.789       2.581      7.6602E-03
  10   10.000       9.842       9.621       9.267       8.696       7.815       6.533       4.789       2.581      7.6602E-03
1
              HEAD IN LAYER   4 AT END OF TIME STEP   2 IN STRESS PERIOD    3
  ---------------------------------------------------------------------------

            1           2           3           4           5           6           7           8           9          10
 ........................................................................................................................
   1   10.000       9.840       9.618       9.263       8.690       7.806       6.523       4.779       2.574      7.6934E-03
   2   10.000       9.840       9.618       9.262       8.689       7.806       6.523       4.779       2.574      7.6934E-03
   3   10.000       9.840       9.618       9.260       8.682       7.804       6.523       4.779       2.574      7.6934E-03
   4   10.000       9.840       9.616       9.248       8.620       7.791       6.521       4.779       2.574      7.6933E-03
   5   10.000       9.840       9.611       9.192       8.192       7.736       6.515       4.778       2.574      7.6932E-03
   6   10.000       9.840       9.616       9.248       8.620       7.791       6.521       4.779       2.574      7.6933E-03
   7   10.000       9.840       9.618       9.260       8.682       7.804       6.523       4.779       2.574      7.6934E-03
   8   10.000       9.840       9.618       9.262       8.689       7.806       6.523       4.779       2.574      7.6934E-03
   9   10.000       9.840       9.618       9.263       8.690       7.806       6.523       4.779       2.574      7.6934E-03
  10   10.000       9.840       9.618       9.263       8.690       7.806       6.523       4.779       2.574      7.6934E-03

 HEAD WILL BE SAVED ON UNIT   51 AT END OF TIME STEP    2, STRESS PERIOD    3

 DRAWDOWN WILL BE SAVED ON UNIT   52 AT END OF TIME STEP    2, STRESS PERIOD    3
1
  VOLUMETRIC BUDGET FOR ENTIRE MODEL AT END OF TIME STEP    2, STRESS PERIOD   3
  ------------------------------------------------------------------------------

     CUMULATIVE VOLUMES      L**3       RATES FOR THIS TIME STEP      L**3/T
     ------------------                 ------------------------

           IN:                                      IN:
           ---                                      ---
             STORAGE =      320976.7188               STORAGE =        1724.0350
       CONSTANT HEAD =           0.0000         CONSTANT HEAD =           0.0000
               WELLS =           0.0000                 WELLS =           0.0000
     HEAD DEP BOUNDS =        2592.3745       HEAD DEP BOUNDS =          93.3008

            TOTAL IN =      323569.0938              TOTAL IN =        1817.3358

          OUT:                                     OUT:
          ----                                     ----
             STORAGE =           0.0000               STORAGE =           0.0000
       CONSTANT HEAD =           0.0000         CONSTANT HEAD =           0.0000
               WELLS =        1000.0000                 WELLS =         500.0000
     HEAD DEP BOUNDS =      322570.5000       HEAD DEP BOUNDS =        1317.3931

           TOTAL OUT =      323570.5000             TOTAL OUT =        1817.3931

            IN - OUT =          -1.4062              IN - OUT =      -5.7251E-02

 PERCENT DISCREPANCY =          -0.00     PERCENT DISCREPANCY =          -0.00






         TIME SUMMARY AT END OF TIME STEP    2 IN STRESS PERIOD    3
                    SECONDS     MINUTES      HOURS       DAYS        YEARS
                    -----------------------------------------------------------
   TIME STEP LENGTH  86400.      1440.0      24.000      1.0000     2.73785E-03
 STRESS PERIOD TIME 1.72800E+05  2880.0      48.000      2.0000     5.47570E-03
         TOTAL TIME 8.89920E+06 1.48320E+05  2472.0      103.00     0.28200    
1
 
 SOLVING FOR HEAD 

 OUTPUT CONTROL FOR STRESS PERIOD    3   TIME STEP    3
    SAVE HEAD FOR ALL LAYERS
    SAVE DRAWDOWN FOR ALL LAYERS
    SAVE BUDGET
    PRINT HEAD FOR ALL LAYERS
    PRINT BUDGET
 UBDSV1 SAVING "         STORAGE" ON UNIT  53 AT TIME STEP  3, STRESS PERIOD   3
 UBDSV2 SAVING "   CONSTANT HEAD" ON UNIT  53 AT TIME STEP  3, STRESS PERIOD   3
 UBDSV1 SAVING "FLOW RIGHT FACE " ON UNIT  53 AT TIME STEP  3, STRESS PERIOD   3
 UBDSV1 SAVING "FLOW FRONT FACE " ON UNIT  53 AT TIME STEP  3, STRESS PERIOD   3
 UBDSV1 SAVING "FLOW LOWER FACE " ON UNIT  53 AT TIME STEP  3, STRESS PERIOD   3
1
              HEAD IN LAYER   1 AT END OF TIME STEP   3 IN STRESS PERIOD    3
  ---------------------------------------------------------------------------

            1           2           3           4           5           6           7           8           9          10
 ........................................................................................................................
   1   10.000       9.845       9.628       9.278       8.712       7.835       6.556       4.813       2.603      3.8064E-03
   2   10.000       9.845       9.628       9.278       8.711       7.835       6.556       4.813       2.603      3.8064E-03
   3   10.000       9.845       9.627       9.276       8.706       7.833       6.556       4.813       2.603      3.8064E-03
   4   10.000       9.845       9.626       9.266       8.648       7.823       6.555       4.813       2.603      3.8064E-03
   5   10.000       9.844       9.622       9.214       7.624       7.770       6.550       4.813       2.603      3.8063E-03
   6   10.000       9.845       9.626       9.266       8.648       7.823       6.555       4.813       2.603      3.8064E-03
   7   10.000       9.845       9.627       9.276       8.706       7.833       6.556       4.813       2.603      3.8064E-03
   8   10.000       9.845       9.628       9.278       8.711       7.835       6.556       4.813       2.603      3.8064E-03
   9   10.000       9.845       9.628       9.278       8.712       7.835       6.556       4.813       2.603      3.8064E-03
  10   10.000       9.845       9.628       9.278       8.712       7.835       6.556       4.813       2.603      3.8064E-03
1
              HEAD IN LAYER   2 AT END OF TIME STEP   3 IN STRESS PERIOD    3
  ---------------------------------------------------------------------------

            1           2           3           4           5           6           7           8           9          10
 ........................................................................................................................
   1   10.000       9.841       9.619       9.264       8.693       7.811       6.530       4.789       2.585      7.1335E-03
   2   10.000       9.841       9.619       9.264       8.692       7.811       6.530       4.789       2.585      7.1335E-03
   3   10.000       9.841       9.619       9.261       8.683       7.808       6.530       4.789       2.585      7.1335E-03
   4   10.000       9.840       9.616       9.246       8.603       7.793       6.527       4.788       2.585      7.1334E-03
   5   10.000       9.840       9.609       9.174       7.793       7.721       6.521       4.788       2.585      7.1332E-03
   6   10.000       9.840       9.616       9.246       8.603       7.793       6.527       4.788       2.585      7.1334E-03
   7   10.000       9.841       9.619       9.261       8.683       7.808       6.530       4.789       2.585      7.1335E-03
   8   10.000       9.841       9.619       9.264       8.692       7.811       6.530       4.789       2.585      7.1335E-03
   9   10.000       9.841       9.619       9.264       8.693       7.811       6.530       4.789       2.585      7.1335E-03
  10   10.000       9.841       9.619       9.265       8.693       7.811       6.530       4.789       2.585      7.1335E-03
1
              HEAD IN LAYER   3 AT END OF TIME STEP   3 IN STRESS PERIOD    3
  ---------------------------------------------------------------------------

            1           2           3           4           5           6           7           8           9          10
 ........................................................................................................................
   1   10.000       9.838       9.614       9.255       8.679       7.794       6.511       4.769       2.569      7.6241E-03
   2   10.000       9.838       9.614       9.255       8.678       7.794       6.511       4.769       2.569      7.6241E-03
   3   10.000       9.838       9.613       9.251       8.667       7.790       6.510       4.769       2.569      7.6241E-03
   4   10.000       9.838       9.610       9.231       8.574       7.770       6.507       4.769       2.569      7.6239E-03
   5   10.000       9.837       9.601       9.150       7.905       7.689       6.499       4.768       2.569      7.6237E-03
   6   10.000       9.838       9.610       9.231       8.574       7.770       6.507       4.769       2.569      7.6239E-03
   7   10.000       9.838       9.613       9.251       8.667       7.790       6.510       4.769       2.569      7.6241E-03
   8   10.000       9.838       9.614       9.255       8.678       7.794       6.511       4.769       2.569      7.6241E-03
   9   10.000       9.838       9.614       9.255       8.679       7.794       6.511       4.769       2.569      7.6241E-03
  10   10.000       9.838       9.614       9.255       8.680       7.794       6.511       4.769       2.569      7.6241E-03
1
              HEAD IN LAYER   4 AT END OF TIME STEP   3 IN STRESS PERIOD    3
  ---------------------------------------------------------------------------

            1           2           3           4           5           6           7           8           9          10
 ........................................................................................................................
   1   10.000       9.837       9.611       9.251       8.673       7.786       6.501       4.759       2.562      7.6574E-03
   2   10.000       9.837       9.611       9.250       8.671       7.785       6.501       4.759       2.562      7.6573E-03
   3   10.000       9.837       9.610       9.246       8.659       7.781       6.500       4.759       2.562      7.6573E-03
   4   10.000       9.836       9.606       9.224       8.561       7.759       6.497       4.759       2.561      7.6571E-03
   5   10.000       9.835       9.597       9.139       7.957       7.674       6.487       4.758       2.561      7.6569E-03
   6   10.000       9.836       9.606       9.224       8.561       7.759       6.497       4.759       2.561      7.6571E-03
   7   10.000       9.837       9.610       9.246       8.659       7.781       6.500       4.759       2.562      7.6573E-03
   8   10.000       9.837       9.611       9.250       8.671       7.785       6.501       4.759       2.562      7.6573E-03
   9   10.000       9.837       9.611       9.251       8.673       7.786       6.501       4.759       2.562      7.6574E-03
  10   10.000       9.837       9.611       9.251       8.673       7.786       6.501       4.759       2.562      7.6574E-03

 HEAD WILL BE SAVED ON UNIT   51 AT END OF TIME STEP    3, STRESS PERIOD    3

 DRAWDOWN WILL BE SAVED ON UNIT   52 AT END OF TIME STEP    3, STRESS PERIOD    3
1
  VOLUMETRIC BUDGET FOR ENTIRE MODEL AT END OF TIME STEP    3, STRESS PERIOD   3
  ------------------------------------------------------------------------------

     CUMULATIVE VOLUMES      L**3       RATES FOR THIS TIME STEP      L**3/T
     ------------------                 ------------------------

           IN:                                      IN:
           ---                                      ---
             STORAGE =      322692.1875               STORAGE =        1715.4838
       CONSTANT HEAD =           0.0000         CONSTANT HEAD =           0.0000
               WELLS =           0.0000                 WELLS =           0.0000
     HEAD DEP BOUNDS =        2687.9612       HEAD DEP BOUNDS =          95.5866

            TOTAL IN =      325380.1562              TOTAL IN =        1811.0704

          OUT:                                     OUT:
          ----                                     ----
             STORAGE =           0.0000               STORAGE =           0.0000
       CONSTANT HEAD =           0.0000         CONSTANT HEAD =           0.0000
               WELLS =        1500.0000                 WELLS =         500.0000
     HEAD DEP BOUNDS =      323881.5625       HEAD DEP BOUNDS =        1311.0559

           TOTAL OUT =      325381.5625             TOTAL OUT =        1811.0559

            IN - OUT =          -1.4062              IN - OUT =       1.4526E-02

 PERCENT DISCREPANCY =          -0.00     PERCENT DISCREPANCY =           0.00






         TIME SUMMARY AT END OF TIME STEP    3 IN STRESS PERIOD    3
                    SECONDS     MINUTES      HOURS       DAYS        YEARS
                    -----------------------------------------------------------
   TIME STEP LENGTH  86400.      1440.0      24.000      1.0000     2.73785E-03
 STRESS PERIOD TIME 2.59200E+05  4320.0      72.000      3.0000     8.21355E-03
         TOTAL TIME 8.98560E+06 1.49760E+05  2496.0      104.00     0.28474    
1
 
 SOLVING FOR HEAD 

 OUTPUT CONTROL FOR STRESS PERIOD    3   TIME STEP    4
    SAVE HEAD FOR ALL LAYERS
    SAVE DRAWDOWN FOR ALL LAYERS
    SAVE BUDGET
    PRINT HEAD FOR ALL LAYERS
    PRINT BUDGET
 UBDSV1 SAVING "         STORAGE" ON UNIT  53 AT TIME STEP  4, STRESS PERIOD   3
 UBDSV2 SAVING "   CONSTANT HEAD" ON UNIT  53 AT TIME STEP  4, STRESS PERIOD   3
 UBDSV1 SAVING "FLOW RIGHT FACE " ON UNIT  53 AT TIME STEP  4, STRESS PERIOD   3
 UBDSV1 SAVING "FLOW FRONT FACE " ON UNIT  53 AT TIME STEP  4, STRESS PERIOD   3
 UBDSV1 SAVING "FLOW LOWER FACE " ON UNIT  53 AT TIME STEP  4, STRESS PERIOD   3
1
              HEAD IN LAYER   1 AT END OF TIME STEP   4 IN STRESS PERIOD    3
  ---------------------------------------------------------------------------

            1           2           3           4           5           6           7           8           9          10
 ........................................................................................................................
   1   10.000       9.841       9.620       9.266       8.695       7.814       6.534       4.793       2.590      3.7865E-03
   2   10.000       9.841       9.620       9.265       8.694       7.814       6.534       4.793       2.590      3.7865E-03
   3   10.000       9.841       9.620       9.263       8.684       7.811       6.533       4.793       2.590      3.7865E-03
   4   10.000       9.841       9.617       9.246       8.596       7.794       6.531       4.793       2.590      3.7864E-03
   5   10.000       9.840       9.610       9.168       7.337       7.715       6.524       4.792       2.590      3.7863E-03
   6   10.000       9.841       9.617       9.246       8.596       7.794       6.531       4.793       2.590      3.7864E-03
   7   10.000       9.841       9.620       9.263       8.684       7.811       6.533       4.793       2.590      3.7865E-03
   8   10.000       9.841       9.620       9.265       8.694       7.814       6.534       4.793       2.590      3.7865E-03
   9   10.000       9.841       9.620       9.266       8.695       7.814       6.534       4.793       2.590      3.7865E-03
  10   10.000       9.841       9.620       9.266       8.695       7.814       6.534       4.793       2.590      3.7865E-03
1
              HEAD IN LAYER   2 AT END OF TIME STEP   4 IN STRESS PERIOD    3
  ---------------------------------------------------------------------------

            1           2           3           4           5           6           7           8           9          10
 ........................................................................................................................
   1   10.000       9.837       9.612       9.252       8.676       7.790       6.508       4.769       2.573      7.0997E-03
   2   10.000       9.837       9.612       9.252       8.674       7.790       6.508       4.769       2.573      7.0997E-03
   3   10.000       9.837       9.611       9.247       8.660       7.785       6.507       4.769       2.573      7.0996E-03
   4   10.000       9.836       9.607       9.223       8.547       7.761       6.503       4.768       2.573      7.0994E-03
   5   10.000       9.835       9.596       9.123       7.544       7.661       6.493       4.767       2.573      7.0991E-03
   6   10.000       9.836       9.607       9.223       8.547       7.761       6.503       4.768       2.573      7.0994E-03
   7   10.000       9.837       9.611       9.247       8.660       7.785       6.507       4.769       2.573      7.0996E-03
   8   10.000       9.837       9.612       9.252       8.674       7.790       6.508       4.769       2.573      7.0997E-03
   9   10.000       9.837       9.612       9.252       8.676       7.790       6.508       4.769       2.573      7.0997E-03
  10   10.000       9.837       9.612       9.252       8.676       7.791       6.508       4.769       2.573      7.0997E-03
1
              HEAD IN LAYER   3 AT END OF TIME STEP   4 IN STRESS PERIOD    3
  ---------------------------------------------------------------------------

            1           2           3           4           5           6           7           8           9          10
 ........................................................................................................................
   1   10.000       9.835       9.606       9.243       8.663       7.773       6.489       4.750       2.557      7.5885E-03
   2   10.000       9.835       9.606       9.242       8.660       7.773       6.489       4.750       2.557      7.5885E-03
   3   10.000       9.834       9.605       9.237       8.644       7.767       6.487       4.749       2.557      7.5884E-03
   4   10.000       9.834       9.600       9.207       8.516       7.738       6.482       4.749       2.557      7.5882E-03
   5   10.000       9.832       9.587       9.096       7.683       7.627       6.470       4.747       2.557      7.5878E-03
   6   10.000       9.834       9.600       9.207       8.516       7.738       6.482       4.749       2.557      7.5882E-03
   7   10.000       9.834       9.605       9.237       8.644       7.767       6.487       4.749       2.557      7.5884E-03
   8   10.000       9.835       9.606       9.242       8.660       7.773       6.489       4.750       2.557      7.5885E-03
   9   10.000       9.835       9.606       9.243       8.663       7.774       6.489       4.750       2.557      7.5885E-03
  10   10.000       9.835       9.606       9.243       8.663       7.774       6.489       4.750       2.557      7.5886E-03
1
              HEAD IN LAYER   4 AT END OF TIME STEP   4 IN STRESS PERIOD    3
  ---------------------------------------------------------------------------

            1           2           3           4           5           6           7           8           9          10
 ........................................................................................................................
   1   10.000       9.833       9.603       9.238       8.656       7.765       6.479       4.740       2.550      7.6218E-03
   2   10.000       9.833       9.603       9.237       8.654       7.764       6.479       4.740       2.550      7.6218E-03
   3   10.000       9.833       9.602       9.231       8.635       7.758       6.478       4.740       2.550      7.6217E-03
   4   10.000       9.832       9.596       9.199       8.501       7.726       6.472       4.739       2.550      7.6214E-03
   5   10.000       9.831       9.582       9.084       7.748       7.611       6.458       4.737       2.549      7.6209E-03
   6   10.000       9.832       9.596       9.199       8.501       7.726       6.472       4.739       2.550      7.6214E-03
   7   10.000       9.833       9.602       9.231       8.635       7.758       6.478       4.740       2.550      7.6217E-03
   8   10.000       9.833       9.603       9.237       8.654       7.764       6.479       4.740       2.550      7.6218E-03
   9   10.000       9.833       9.603       9.238       8.656       7.765       6.479       4.740       2.550      7.6218E-03
  10   10.000       9.833       9.603       9.239       8.656       7.765       6.479       4.740       2.550      7.6218E-03

 HEAD WILL BE SAVED ON UNIT   51 AT END OF TIME STEP    4, STRESS PERIOD    3

 DRAWDOWN WILL BE SAVED ON UNIT   52 AT END OF TIME STEP    4, STRESS PERIOD    3
1
  VOLUMETRIC BUDGET FOR ENTIRE MODEL AT END OF TIME STEP    4, STRESS PERIOD   3
  ------------------------------------------------------------------------------

     CUMULATIVE VOLUMES      L**3       RATES FOR THIS TIME STEP      L**3/T
     ------------------                 ------------------------

           IN:                                      IN:
           ---                                      ---
             STORAGE =      324399.1562               STORAGE =        1706.9546
       CONSTANT HEAD =           0.0000         CONSTANT HEAD =           0.0000
               WELLS =           0.0000                 WELLS =           0.0000
     HEAD DEP BOUNDS =        2785.8455       HEAD DEP BOUNDS =          97.8843

            TOTAL IN =      327185.0000              TOTAL IN =        1804.8389

          OUT:                                     OUT:
          ----                                     ----
             STORAGE =           0.0000               STORAGE =           0.0000
       CONSTANT HEAD =           0.0000         CONSTANT HEAD =           0.0000
               WELLS =        2000.0000                 WELLS =         500.0000
     HEAD DEP BOUNDS =      325186.3750       HEAD DEP BOUNDS =        1304.8010

           TOTAL OUT =      327186.3750             TOTAL OUT =        1804.8010

            IN - OUT =          -1.3750              IN - OUT =       3.7842E-02

 PERCENT DISCREPANCY =          -0.00     PERCENT DISCREPANCY =           0.00






         TIME SUMMARY AT END OF TIME STEP    4 IN STRESS PERIOD    3
                    SECONDS     MINUTES      HOURS       DAYS        YEARS
                    -----------------------------------------------------------
   TIME STEP LENGTH  86400.      1440.0      24.000      1.0000     2.73785E-03
 STRESS PERIOD TIME 3.45600E+05  5760.0      96.000      4.0000     1.09514E-02
         TOTAL TIME 9.07200E+06 1.51200E+05  2520.0      105.00     0.28747    
1
 
 SOLVING FOR HEAD 

 OUTPUT CONTROL FOR STRESS PERIOD    3   TIME STEP    5
    SAVE HEAD FOR ALL LAYERS
    SAVE DRAWDOWN FOR ALL LAYERS
    SAVE BUDGET
    PRINT HEAD FOR ALL LAYERS
    PRINT BUDGET
 UBDSV1 SAVING "         STORAGE" ON UNIT  53 AT TIME STEP  5, STRESS PERIOD   3
 UBDSV2 SAVING "   CONSTANT HEAD" ON UNIT  53 AT TIME STEP  5, STRESS PERIOD   3
 UBDSV1 SAVING "FLOW RIGHT FACE " ON UNIT  53 AT TIME STEP  5, STRESS PERIOD   3
 UBDSV1 SAVING "FLOW FRONT FACE " ON UNIT  53 AT TIME STEP  5, STRESS PERIOD   3
 UBDSV1 SAVING "FLOW LOWER FACE " ON UNIT  53 AT TIME STEP  5, STRESS PERIOD   3
1
              HEAD IN LAYER   1 AT END OF TIME STEP   5 IN STRESS PERIOD    3
  ---------------------------------------------------------------------------

            1           2           3           4           5           6           7           8           9          10
 ........................................................................................................................
   1   10.000       9.838       9.613       9.254       8.678       7.793       6.512       4.774       2.578      3.7670E-03
   2   10.000       9.838       9.612       9.253       8.676       7.793       6.512       4.774       2.578      3.7670E-03
   3   10.000       9.837       9.611       9.248       8.662       7.788       6.511       4.774       2.578      3.7670E-03
   4   10.000       9.837       9.607       9.224       8.542       7.763       6.507       4.773       2.578      3.7669E-03
   5   10.000       9.836       9.597       9.118       7.084       7.656       6.496       4.772       2.578      3.7667E-03
   6   10.000       9.837       9.607       9.224       8.542       7.763       6.507       4.773       2.578      3.7669E-03
   7   10.000       9.837       9.611       9.248       8.662       7.788       6.511       4.774       2.578      3.7670E-03
   8   10.000       9.838       9.612       9.253       8.676       7.793       6.512       4.774       2.578      3.7670E-03
   9   10.000       9.838       9.613       9.254       8.678       7.793       6.512       4.774       2.578      3.7670E-03
  10   10.000       9.838       9.613       9.254       8.678       7.793       6.512       4.774       2.578      3.7671E-03
1
              HEAD IN LAYER   2 AT END OF TIME STEP   5 IN STRESS PERIOD    3
  ---------------------------------------------------------------------------

            1           2           3           4           5           6           7           8           9          10
 ........................................................................................................................
   1   10.000       9.834       9.604       9.240       8.659       7.770       6.486       4.750       2.561      7.0663E-03
   2   10.000       9.834       9.604       9.239       8.656       7.769       6.486       4.750       2.561      7.0663E-03
   3   10.000       9.833       9.602       9.232       8.637       7.762       6.485       4.749       2.561      7.0662E-03
   4   10.000       9.832       9.596       9.198       8.489       7.728       6.479       4.749       2.561      7.0659E-03
   5   10.000       9.831       9.582       9.070       7.323       7.600       6.464       4.747       2.560      7.0654E-03
   6   10.000       9.832       9.596       9.198       8.489       7.728       6.479       4.749       2.561      7.0659E-03
   7   10.000       9.833       9.602       9.232       8.637       7.762       6.485       4.749       2.561      7.0662E-03
   8   10.000       9.834       9.604       9.239       8.656       7.769       6.486       4.750       2.561      7.0663E-03
   9   10.000       9.834       9.604       9.240       8.659       7.770       6.486       4.750       2.561      7.0663E-03
  10   10.000       9.834       9.604       9.240       8.659       7.770       6.486       4.750       2.561      7.0663E-03
1
              HEAD IN LAYER   3 AT END OF TIME STEP   5 IN STRESS PERIOD    3
  ---------------------------------------------------------------------------

            1           2           3           4           5           6           7           8           9          10
 ........................................................................................................................
   1   10.000       9.831       9.598       9.231       8.646       7.753       6.467       4.730       2.546      7.5535E-03
   2   10.000       9.831       9.598       9.229       8.643       7.752       6.467       4.730       2.545      7.5534E-03
   3   10.000       9.830       9.596       9.221       8.619       7.744       6.465       4.730       2.545      7.5533E-03
   4   10.000       9.829       9.589       9.181       8.456       7.703       6.458       4.729       2.545      7.5528E-03
   5   10.000       9.827       9.572       9.041       7.484       7.564       6.441       4.727       2.545      7.5522E-03
   6   10.000       9.829       9.589       9.181       8.456       7.703       6.458       4.729       2.545      7.5528E-03
   7   10.000       9.830       9.596       9.221       8.619       7.744       6.465       4.730       2.545      7.5533E-03
   8   10.000       9.831       9.598       9.229       8.643       7.752       6.467       4.730       2.545      7.5534E-03
   9   10.000       9.831       9.598       9.231       8.646       7.753       6.467       4.730       2.546      7.5535E-03
  10   10.000       9.831       9.598       9.231       8.646       7.753       6.467       4.731       2.546      7.5535E-03
1
              HEAD IN LAYER   4 AT END OF TIME STEP   5 IN STRESS PERIOD    3
  ---------------------------------------------------------------------------

            1           2           3           4           5           6           7           8           9          10
 ........................................................................................................................
   1   10.000       9.830       9.595       9.226       8.639       7.745       6.457       4.721       2.538      7.5868E-03
   2   10.000       9.829       9.595       9.225       8.636       7.743       6.457       4.721       2.538      7.5867E-03
   3   10.000       9.829       9.593       9.216       8.611       7.734       6.455       4.720       2.538      7.5866E-03
   4   10.000       9.828       9.585       9.172       8.441       7.691       6.447       4.719       2.538      7.5861E-03
   5   10.000       9.826       9.566       9.028       7.561       7.547       6.429       4.717       2.537      7.5854E-03
   6   10.000       9.828       9.585       9.172       8.441       7.691       6.447       4.719       2.538      7.5861E-03
   7   10.000       9.829       9.593       9.216       8.611       7.734       6.455       4.720       2.538      7.5866E-03
   8   10.000       9.829       9.595       9.225       8.636       7.743       6.457       4.721       2.538      7.5867E-03
   9   10.000       9.830       9.596       9.226       8.639       7.745       6.457       4.721       2.538      7.5868E-03
  10   10.000       9.830       9.596       9.226       8.640       7.745       6.457       4.721       2.538      7.5868E-03

 HEAD WILL BE SAVED ON UNIT   51 AT END OF TIME STEP    5, STRESS PERIOD    3

 DRAWDOWN WILL BE SAVED ON UNIT   52 AT END OF TIME STEP    5, STRESS PERIOD    3
1
  VOLUMETRIC BUDGET FOR ENTIRE MODEL AT END OF TIME STEP    5, STRESS PERIOD   3
  ------------------------------------------------------------------------------

     CUMULATIVE VOLUMES      L**3       RATES FOR THIS TIME STEP      L**3/T
     ------------------                 ------------------------

           IN:                                      IN:
           ---                                      ---
             STORAGE =      326097.6250               STORAGE =        1698.4730
       CONSTANT HEAD =           0.0000         CONSTANT HEAD =           0.0000
               WELLS =           0.0000                 WELLS =           0.0000
     HEAD DEP BOUNDS =        2886.0300       HEAD DEP BOUNDS =         100.1847

            TOTAL IN =      328983.6562              TOTAL IN =        1798.6577

          OUT:                                     OUT:
          ----                                     ----
             STORAGE =           0.0000               STORAGE =           0.0000
       CONSTANT HEAD =           0.0000         CONSTANT HEAD =           0.0000
               WELLS =        2500.0000                 WELLS =         500.0000
     HEAD DEP BOUNDS =      326485.0000       HEAD DEP BOUNDS =        1298.6342

           TOTAL OUT =      328985.0000             TOTAL OUT =        1798.6342

            IN - OUT =          -1.3438              IN - OUT =       2.3560E-02

 PERCENT DISCREPANCY =          -0.00     PERCENT DISCREPANCY =           0.00






         TIME SUMMARY AT END OF TIME STEP    5 IN STRESS PERIOD    3
                    SECONDS     MINUTES      HOURS       DAYS        YEARS
                    -----------------------------------------------------------
   TIME STEP LENGTH  86400.      1440.0      24.000      1.0000     2.73785E-03
 STRESS PERIOD TIME 4.32000E+05  7200.0      120.00      5.0000     1.36893E-02
         TOTAL TIME 9.15840E+06 1.52640E+05  2544.0      106.00     0.29021    
1
 
 SOLVING FOR HEAD 

 OUTPUT CONTROL FOR STRESS PERIOD    3   TIME STEP    6
    SAVE HEAD FOR ALL LAYERS
    SAVE DRAWDOWN FOR ALL LAYERS
    SAVE BUDGET
    PRINT HEAD FOR ALL LAYERS
    PRINT BUDGET
 UBDSV1 SAVING "         STORAGE" ON UNIT  53 AT TIME STEP  6, STRESS PERIOD   3
 UBDSV2 SAVING "   CONSTANT HEAD" ON UNIT  53 AT TIME STEP  6, STRESS PERIOD   3
 UBDSV1 SAVING "FLOW RIGHT FACE " ON UNIT  53 AT TIME STEP  6, STRESS PERIOD   3
 UBDSV1 SAVING "FLOW FRONT FACE " ON UNIT  53 AT TIME STEP  6, STRESS PERIOD   3
 UBDSV1 SAVING "FLOW LOWER FACE " ON UNIT  53 AT TIME STEP  6, STRESS PERIOD   3
1
              HEAD IN LAYER   1 AT END OF TIME STEP   6 IN STRESS PERIOD    3
  ---------------------------------------------------------------------------

            1           2           3           4           5           6           7           8           9          10
 ........................................................................................................................
   1   10.000       9.834       9.605       9.241       8.661       7.773       6.490       4.754       2.566      3.7478E-03
   2   10.000       9.834       9.605       9.240       8.658       7.772       6.490       4.754       2.566      3.7478E-03
   3   10.000       9.834       9.603       9.234       8.639       7.765       6.488       4.754       2.566      3.7477E-03
   4   10.000       9.833       9.597       9.199       8.485       7.730       6.482       4.753       2.566      3.7475E-03
   5   10.000       9.831       9.582       9.066       6.860       7.595       6.467       4.751       2.566      3.7472E-03
   6   10.000       9.833       9.597       9.199       8.485       7.730       6.482       4.753       2.566      3.7475E-03
   7   10.000       9.834       9.603       9.234       8.639       7.765       6.488       4.754       2.566      3.7477E-03
   8   10.000       9.834       9.605       9.240       8.658       7.772       6.490       4.754       2.566      3.7478E-03
   9   10.000       9.834       9.605       9.242       8.661       7.773       6.490       4.754       2.566      3.7478E-03
  10   10.000       9.834       9.605       9.242       8.661       7.773       6.490       4.754       2.566      3.7478E-03
1
              HEAD IN LAYER   2 AT END OF TIME STEP   6 IN STRESS PERIOD    3
  ---------------------------------------------------------------------------

            1           2           3           4           5           6           7           8           9          10
 ........................................................................................................................
   1   10.000       9.830       9.596       9.228       8.642       7.749       6.465       4.731       2.549      7.0334E-03
   2   10.000       9.830       9.596       9.226       8.638       7.748       6.464       4.730       2.549      7.0334E-03
   3   10.000       9.829       9.594       9.217       8.613       7.739       6.462       4.730       2.549      7.0332E-03
   4   10.000       9.828       9.585       9.172       8.430       7.694       6.454       4.729       2.549      7.0327E-03
   5   10.000       9.826       9.566       9.016       7.125       7.537       6.435       4.727       2.548      7.0320E-03
   6   10.000       9.828       9.585       9.172       8.430       7.694       6.454       4.729       2.549      7.0327E-03
   7   10.000       9.829       9.594       9.217       8.613       7.739       6.462       4.730       2.549      7.0332E-03
   8   10.000       9.830       9.596       9.226       8.638       7.748       6.464       4.730       2.549      7.0334E-03
   9   10.000       9.830       9.596       9.228       8.642       7.749       6.465       4.731       2.549      7.0334E-03
  10   10.000       9.830       9.597       9.228       8.643       7.750       6.465       4.731       2.549      7.0335E-03
1
              HEAD IN LAYER   3 AT END OF TIME STEP   6 IN STRESS PERIOD    3
  ---------------------------------------------------------------------------

            1           2           3           4           5           6           7           8           9          10
 ........................................................................................................................
   1   10.000       9.827       9.591       9.219       8.629       7.733       6.445       4.711       2.534      7.5189E-03
   2   10.000       9.827       9.590       9.217       8.624       7.731       6.445       4.711       2.534      7.5188E-03
   3   10.000       9.827       9.587       9.205       8.594       7.720       6.442       4.711       2.534      7.5185E-03
   4   10.000       9.825       9.577       9.153       8.397       7.667       6.432       4.709       2.534      7.5179E-03
   5   10.000       9.822       9.555       8.986       7.306       7.500       6.411       4.707       2.533      7.5170E-03
   6   10.000       9.825       9.577       9.153       8.397       7.667       6.432       4.709       2.534      7.5179E-03
   7   10.000       9.827       9.587       9.205       8.594       7.720       6.442       4.711       2.534      7.5185E-03
   8   10.000       9.827       9.590       9.217       8.624       7.731       6.445       4.711       2.534      7.5188E-03
   9   10.000       9.827       9.591       9.219       8.629       7.733       6.445       4.711       2.534      7.5189E-03
  10   10.000       9.827       9.591       9.219       8.629       7.733       6.446       4.712       2.534      7.5189E-03
1
              HEAD IN LAYER   4 AT END OF TIME STEP   6 IN STRESS PERIOD    3
  ---------------------------------------------------------------------------

            1           2           3           4           5           6           7           8           9          10
 ........................................................................................................................
   1   10.000       9.826       9.588       9.214       8.622       7.724       6.436       4.702       2.526      7.5522E-03
   2   10.000       9.826       9.587       9.212       8.617       7.722       6.435       4.702       2.526      7.5521E-03
   3   10.000       9.825       9.584       9.200       8.585       7.710       6.432       4.701       2.526      7.5518E-03
   4   10.000       9.823       9.573       9.144       8.381       7.654       6.422       4.700       2.526      7.5511E-03
   5   10.000       9.820       9.550       8.973       7.392       7.483       6.399       4.697       2.526      7.5501E-03
   6   10.000       9.823       9.573       9.144       8.381       7.654       6.422       4.700       2.526      7.5511E-03
   7   10.000       9.825       9.584       9.200       8.585       7.710       6.432       4.701       2.526      7.5518E-03
   8   10.000       9.826       9.587       9.212       8.617       7.722       6.435       4.702       2.526      7.5521E-03
   9   10.000       9.826       9.588       9.214       8.622       7.724       6.436       4.702       2.526      7.5522E-03
  10   10.000       9.826       9.588       9.214       8.623       7.725       6.436       4.702       2.526      7.5522E-03

 HEAD WILL BE SAVED ON UNIT   51 AT END OF TIME STEP    6, STRESS PERIOD    3

 DRAWDOWN WILL BE SAVED ON UNIT   52 AT END OF TIME STEP    6, STRESS PERIOD    3
1
  VOLUMETRIC BUDGET FOR ENTIRE MODEL AT END OF TIME STEP    6, STRESS PERIOD   3
  ------------------------------------------------------------------------------

     CUMULATIVE VOLUMES      L**3       RATES FOR THIS TIME STEP      L**3/T
     ------------------                 ------------------------

           IN:                                      IN:
           ---                                      ---
             STORAGE =      327787.6250               STORAGE =        1690.0122
       CONSTANT HEAD =           0.0000         CONSTANT HEAD =           0.0000
               WELLS =           0.0000                 WELLS =           0.0000
     HEAD DEP BOUNDS =        2988.6270       HEAD DEP BOUNDS =         102.5970

            TOTAL IN =      330776.2500              TOTAL IN =        1792.6091

          OUT:                                     OUT:
          ----                                     ----
             STORAGE =           0.0000               STORAGE =           0.0000
       CONSTANT HEAD =           0.0000         CONSTANT HEAD =           0.0000
               WELLS =        3000.0000                 WELLS =         500.0000
     HEAD DEP BOUNDS =      327777.5312       HEAD DEP BOUNDS =        1292.5424

           TOTAL OUT =      330777.5312             TOTAL OUT =        1792.5424

            IN - OUT =          -1.2812              IN - OUT =       6.6772E-02

 PERCENT DISCREPANCY =          -0.00     PERCENT DISCREPANCY =           0.00






         TIME SUMMARY AT END OF TIME STEP    6 IN STRESS PERIOD    3
                    SECONDS     MINUTES      HOURS       DAYS        YEARS
                    -----------------------------------------------------------
   TIME STEP LENGTH  86400.      1440.0      24.000      1.0000     2.73785E-03
 STRESS PERIOD TIME 5.18400E+05  8640.0      144.00      6.0000     1.64271E-02
         TOTAL TIME 9.24480E+06 1.54080E+05  2568.0      107.00     0.29295    
1
 
 SOLVING FOR HEAD 

 OUTPUT CONTROL FOR STRESS PERIOD    3   TIME STEP    7
    SAVE HEAD FOR ALL LAYERS
    SAVE DRAWDOWN FOR ALL LAYERS
    SAVE BUDGET
    PRINT HEAD FOR ALL LAYERS
    PRINT BUDGET
 UBDSV1 SAVING "         STORAGE" ON UNIT  53 AT TIME STEP  7, STRESS PERIOD   3
 UBDSV2 SAVING "   CONSTANT HEAD" ON UNIT  53 AT TIME STEP  7, STRESS PERIOD   3
 UBDSV1 SAVING "FLOW RIGHT FACE " ON UNIT  53 AT TIME STEP  7, STRESS PERIOD   3
 UBDSV1 SAVING "FLOW FRONT FACE " ON UNIT  53 AT TIME STEP  7, STRESS PERIOD   3
 UBDSV1 SAVING "FLOW LOWER FACE " ON UNIT  53 AT TIME STEP  7, STRESS PERIOD   3
1
              HEAD IN LAYER   1 AT END OF TIME STEP   7 IN STRESS PERIOD    3
  ---------------------------------------------------------------------------

            1           2           3           4           5           6           7           8           9          10
 ........................................................................................................................
   1   10.000       9.830       9.597       9.229       8.644       7.752       6.468       4.735       2.554      3.7289E-03
   2   10.000       9.830       9.597       9.228       8.640       7.751       6.468       4.735       2.554      3.7289E-03
   3   10.000       9.830       9.595       9.218       8.615       7.741       6.465       4.734       2.554      3.7288E-03
   4   10.000       9.828       9.586       9.173       8.427       7.696       6.457       4.733       2.554      3.7285E-03
   5   10.000       9.826       9.567       9.013       6.660       7.533       6.438       4.731       2.554      3.7280E-03
   6   10.000       9.828       9.586       9.173       8.427       7.696       6.457       4.733       2.554      3.7285E-03
   7   10.000       9.830       9.595       9.218       8.615       7.741       6.465       4.734       2.554      3.7288E-03
   8   10.000       9.830       9.597       9.228       8.640       7.751       6.468       4.735       2.554      3.7289E-03
   9   10.000       9.830       9.597       9.229       8.644       7.752       6.468       4.735       2.554      3.7289E-03
  10   10.000       9.830       9.597       9.230       8.645       7.753       6.468       4.735       2.554      3.7289E-03
1
              HEAD IN LAYER   2 AT END OF TIME STEP   7 IN STRESS PERIOD    3
  ---------------------------------------------------------------------------

            1           2           3           4           5           6           7           8           9          10
 ........................................................................................................................
   1   10.000       9.826       9.589       9.216       8.625       7.729       6.443       4.712       2.537      7.0010E-03
   2   10.000       9.826       9.588       9.213       8.620       7.727       6.442       4.711       2.537      7.0009E-03
   3   10.000       9.825       9.585       9.201       8.588       7.715       6.439       4.711       2.537      7.0007E-03
   4   10.000       9.824       9.574       9.144       8.371       7.658       6.428       4.709       2.537      6.9999E-03
   5   10.000       9.821       9.550       8.962       6.947       7.474       6.405       4.706       2.537      6.9990E-03
   6   10.000       9.824       9.574       9.144       8.371       7.658       6.428       4.709       2.537      6.9999E-03
   7   10.000       9.825       9.585       9.201       8.588       7.715       6.439       4.711       2.537      7.0007E-03
   8   10.000       9.826       9.588       9.213       8.620       7.727       6.442       4.711       2.537      7.0009E-03
   9   10.000       9.826       9.589       9.216       8.625       7.729       6.443       4.712       2.537      7.0010E-03
  10   10.000       9.826       9.589       9.216       8.626       7.729       6.443       4.712       2.537      7.0010E-03
1
              HEAD IN LAYER   3 AT END OF TIME STEP   7 IN STRESS PERIOD    3
  ---------------------------------------------------------------------------

            1           2           3           4           5           6           7           8           9          10
 ........................................................................................................................
   1   10.000       9.824       9.583       9.206       8.612       7.712       6.424       4.693       2.522      7.4847E-03
   2   10.000       9.823       9.582       9.204       8.606       7.710       6.423       4.693       2.522      7.4846E-03
   3   10.000       9.823       9.578       9.189       8.569       7.695       6.420       4.692       2.522      7.4842E-03
   4   10.000       9.820       9.565       9.124       8.337       7.631       6.407       4.690       2.522      7.4833E-03
   5   10.000       9.817       9.539       8.932       7.145       7.437       6.380       4.686       2.521      7.4821E-03
   6   10.000       9.820       9.565       9.124       8.337       7.631       6.407       4.690       2.522      7.4833E-03
   7   10.000       9.823       9.578       9.189       8.569       7.695       6.420       4.692       2.522      7.4842E-03
   8   10.000       9.823       9.582       9.204       8.606       7.710       6.423       4.693       2.522      7.4846E-03
   9   10.000       9.824       9.583       9.206       8.612       7.712       6.424       4.693       2.522      7.4847E-03
  10   10.000       9.824       9.583       9.207       8.613       7.713       6.424       4.693       2.522      7.4848E-03
1
              HEAD IN LAYER   4 AT END OF TIME STEP   7 IN STRESS PERIOD    3
  ---------------------------------------------------------------------------

            1           2           3           4           5           6           7           8           9          10
 ........................................................................................................................
   1   10.000       9.822       9.580       9.202       8.605       7.704       6.415       4.683       2.515      7.5181E-03
   2   10.000       9.822       9.579       9.199       8.599       7.701       6.414       4.683       2.515      7.5180E-03
   3   10.000       9.821       9.575       9.183       8.559       7.686       6.410       4.682       2.515      7.5176E-03
   4   10.000       9.819       9.561       9.114       8.322       7.617       6.396       4.680       2.514      7.5165E-03
   5   10.000       9.815       9.533       8.918       7.239       7.419       6.368       4.676       2.514      7.5152E-03
   6   10.000       9.819       9.561       9.114       8.322       7.617       6.396       4.680       2.514      7.5165E-03
   7   10.000       9.821       9.575       9.183       8.559       7.686       6.410       4.682       2.515      7.5176E-03
   8   10.000       9.822       9.579       9.199       8.599       7.701       6.414       4.683       2.515      7.5180E-03
   9   10.000       9.822       9.580       9.202       8.605       7.704       6.415       4.683       2.515      7.5181E-03
  10   10.000       9.822       9.580       9.202       8.606       7.705       6.415       4.683       2.515      7.5181E-03

 HEAD WILL BE SAVED ON UNIT   51 AT END OF TIME STEP    7, STRESS PERIOD    3

 DRAWDOWN WILL BE SAVED ON UNIT   52 AT END OF TIME STEP    7, STRESS PERIOD    3
1
  VOLUMETRIC BUDGET FOR ENTIRE MODEL AT END OF TIME STEP    7, STRESS PERIOD   3
  ------------------------------------------------------------------------------

     CUMULATIVE VOLUMES      L**3       RATES FOR THIS TIME STEP      L**3/T
     ------------------                 ------------------------

           IN:                                      IN:
           ---                                      ---
             STORAGE =      329469.1875               STORAGE =        1681.5723
       CONSTANT HEAD =           0.0000         CONSTANT HEAD =           0.0000
               WELLS =           0.0000                 WELLS =           0.0000
     HEAD DEP BOUNDS =        3093.6353       HEAD DEP BOUNDS =         105.0083

            TOTAL IN =      332562.8125              TOTAL IN =        1786.5806

          OUT:                                     OUT:
          ----                                     ----
             STORAGE =           0.0000               STORAGE =           0.0000
       CONSTANT HEAD =           0.0000         CONSTANT HEAD =           0.0000
               WELLS =        3500.0000                 WELLS =         500.0000
     HEAD DEP BOUNDS =      329064.0625       HEAD DEP BOUNDS =        1286.5315

           TOTAL OUT =      332564.0625             TOTAL OUT =        1786.5315

            IN - OUT =          -1.2500              IN - OUT =       4.9072E-02

 PERCENT DISCREPANCY =          -0.00     PERCENT DISCREPANCY =           0.00






         TIME SUMMARY AT END OF TIME STEP    7 IN STRESS PERIOD    3
                    SECONDS     MINUTES      HOURS       DAYS        YEARS
                    -----------------------------------------------------------
   TIME STEP LENGTH  86400.      1440.0      24.000      1.0000     2.73785E-03
 STRESS PERIOD TIME 6.04800E+05  10080.      168.00      7.0000     1.91650E-02
         TOTAL TIME 9.33120E+06 1.55520E+05  2592.0      108.00     0.29569    
1
 
 SOLVING FOR HEAD 

 OUTPUT CONTROL FOR STRESS PERIOD    3   TIME STEP    8
    SAVE HEAD FOR ALL LAYERS
    SAVE DRAWDOWN FOR ALL LAYERS
    SAVE BUDGET
    PRINT HEAD FOR ALL LAYERS
    PRINT BUDGET
 UBDSV1 SAVING "         STORAGE" ON UNIT  53 AT TIME STEP  8, STRESS PERIOD   3
 UBDSV2 SAVING "   CONSTANT HEAD" ON UNIT  53 AT TIME STEP  8, STRESS PERIOD   3
 UBDSV1 SAVING "FLOW RIGHT FACE " ON UNIT  53 AT TIME STEP  8, STRESS PERIOD   3
 UBDSV1 SAVING "FLOW FRONT FACE " ON UNIT  53 AT TIME STEP  8, STRESS PERIOD   3
 UBDSV1 SAVING "FLOW LOWER FACE " ON UNIT  53 AT TIME STEP  8, STRESS PERIOD   3
1
              HEAD IN LAYER   1 AT END OF TIME STEP   8 IN STRESS PERIOD    3
  ---------------------------------------------------------------------------

            1           2           3           4           5           6           7           8           9          10
 ........................................................................................................................
   1   10.000       9.827       9.590       9.217       8.627       7.732       6.447       4.716       2.543      3.7102E-03
   2   10.000       9.827       9.589       9.215       8.622       7.730       6.446       4.716       2.542      3.7101E-03
   3   10.000       9.826       9.586       9.202       8.590       7.717       6.443       4.715       2.542      3.7099E-03
   4   10.000       9.824       9.575       9.146       8.369       7.660       6.432       4.713       2.542      3.7095E-03
   5   10.000       9.821       9.551       8.960       6.481       7.470       6.408       4.710       2.542      3.7088E-03
   6   10.000       9.824       9.575       9.146       8.369       7.660       6.432       4.713       2.542      3.7095E-03
   7   10.000       9.826       9.586       9.202       8.590       7.717       6.443       4.715       2.542      3.7099E-03
   8   10.000       9.827       9.589       9.215       8.622       7.730       6.446       4.716       2.542      3.7101E-03
   9   10.000       9.827       9.590       9.217       8.627       7.732       6.447       4.716       2.543      3.7102E-03
  10   10.000       9.827       9.590       9.217       8.628       7.732       6.447       4.716       2.543      3.7102E-03
1
              HEAD IN LAYER   2 AT END OF TIME STEP   8 IN STRESS PERIOD    3
  ---------------------------------------------------------------------------

            1           2           3           4           5           6           7           8           9          10
 ........................................................................................................................
   1   10.000       9.823       9.581       9.203       8.608       7.709       6.422       4.693       2.526      6.9690E-03
   2   10.000       9.822       9.580       9.200       8.602       7.706       6.421       4.693       2.526      6.9689E-03
   3   10.000       9.821       9.576       9.184       8.562       7.690       6.417       4.692       2.526      6.9685E-03
   4   10.000       9.819       9.561       9.115       8.313       7.621       6.403       4.689       2.525      6.9675E-03
   5   10.000       9.815       9.533       8.908       6.787       7.412       6.375       4.686       2.525      6.9662E-03
   6   10.000       9.819       9.561       9.115       8.313       7.621       6.403       4.689       2.525      6.9675E-03
   7   10.000       9.821       9.576       9.184       8.562       7.690       6.417       4.692       2.526      6.9685E-03
   8   10.000       9.822       9.580       9.200       8.602       7.706       6.421       4.693       2.526      6.9689E-03
   9   10.000       9.823       9.581       9.203       8.608       7.709       6.422       4.693       2.526      6.9690E-03
  10   10.000       9.823       9.581       9.204       8.609       7.709       6.422       4.693       2.526      6.9690E-03
1
              HEAD IN LAYER   3 AT END OF TIME STEP   8 IN STRESS PERIOD    3
  ---------------------------------------------------------------------------

            1           2           3           4           5           6           7           8           9          10
 ........................................................................................................................
   1   10.000       9.820       9.575       9.194       8.595       7.692       6.403       4.674       2.511      7.4510E-03
   2   10.000       9.820       9.574       9.190       8.588       7.689       6.402       4.674       2.511      7.4509E-03
   3   10.000       9.818       9.569       9.172       8.542       7.670       6.397       4.673       2.511      7.4503E-03
   4   10.000       9.816       9.553       9.094       8.278       7.593       6.381       4.670       2.510      7.4490E-03
   5   10.000       9.811       9.521       8.877       6.999       7.374       6.349       4.666       2.510      7.4474E-03
   6   10.000       9.816       9.553       9.094       8.278       7.593       6.381       4.670       2.510      7.4490E-03
   7   10.000       9.818       9.569       9.172       8.542       7.670       6.397       4.673       2.511      7.4503E-03
   8   10.000       9.820       9.574       9.190       8.588       7.689       6.402       4.674       2.511      7.4509E-03
   9   10.000       9.820       9.575       9.194       8.595       7.692       6.403       4.674       2.511      7.4510E-03
  10   10.000       9.820       9.575       9.195       8.596       7.693       6.403       4.674       2.511      7.4511E-03
1
              HEAD IN LAYER   4 AT END OF TIME STEP   8 IN STRESS PERIOD    3
  ---------------------------------------------------------------------------

            1           2           3           4           5           6           7           8           9          10
 ........................................................................................................................
   1   10.000       9.818       9.572       9.189       8.588       7.684       6.393       4.665       2.504      7.4844E-03
   2   10.000       9.818       9.571       9.185       8.581       7.680       6.392       4.665       2.504      7.4843E-03
   3   10.000       9.817       9.566       9.166       8.532       7.661       6.387       4.663       2.503      7.4837E-03
   4   10.000       9.814       9.548       9.084       8.263       7.579       6.370       4.660       2.503      7.4822E-03
   5   10.000       9.809       9.515       8.863       7.100       7.357       6.336       4.656       2.502      7.4805E-03
   6   10.000       9.814       9.548       9.084       8.263       7.579       6.370       4.660       2.503      7.4822E-03
   7   10.000       9.817       9.566       9.166       8.532       7.661       6.387       4.663       2.503      7.4837E-03
   8   10.000       9.818       9.571       9.185       8.581       7.680       6.392       4.665       2.504      7.4843E-03
   9   10.000       9.818       9.572       9.189       8.589       7.684       6.393       4.665       2.504      7.4844E-03
  10   10.000       9.819       9.572       9.190       8.590       7.685       6.394       4.665       2.504      7.4845E-03

 HEAD WILL BE SAVED ON UNIT   51 AT END OF TIME STEP    8, STRESS PERIOD    3

 DRAWDOWN WILL BE SAVED ON UNIT   52 AT END OF TIME STEP    8, STRESS PERIOD    3
1
  VOLUMETRIC BUDGET FOR ENTIRE MODEL AT END OF TIME STEP    8, STRESS PERIOD   3
  ------------------------------------------------------------------------------

     CUMULATIVE VOLUMES      L**3       RATES FOR THIS TIME STEP      L**3/T
     ------------------                 ------------------------

           IN:                                      IN:
           ---                                      ---
             STORAGE =      331142.3438               STORAGE =        1673.1436
       CONSTANT HEAD =           0.0000         CONSTANT HEAD =           0.0000
               WELLS =           0.0000                 WELLS =           0.0000
     HEAD DEP BOUNDS =        3201.1035       HEAD DEP BOUNDS =         107.4681

            TOTAL IN =      334343.4375              TOTAL IN =        1780.6117

          OUT:                                     OUT:
          ----                                     ----
             STORAGE =           0.0000               STORAGE =           0.0000
       CONSTANT HEAD =           0.0000         CONSTANT HEAD =           0.0000
               WELLS =        4000.0000                 WELLS =         500.0000
     HEAD DEP BOUNDS =      330344.6562       HEAD DEP BOUNDS =        1280.5825

           TOTAL OUT =      334344.6562             TOTAL OUT =        1780.5825

            IN - OUT =          -1.2188              IN - OUT =       2.9175E-02

 PERCENT DISCREPANCY =          -0.00     PERCENT DISCREPANCY =           0.00






         TIME SUMMARY AT END OF TIME STEP    8 IN STRESS PERIOD    3
                    SECONDS     MINUTES      HOURS       DAYS        YEARS
                    -----------------------------------------------------------
   TIME STEP LENGTH  86400.      1440.0      24.000      1.0000     2.73785E-03
 STRESS PERIOD TIME 6.91200E+05  11520.      192.00      8.0000     2.19028E-02
         TOTAL TIME 9.41760E+06 1.56960E+05  2616.0      109.00     0.29843    
1
 
 SOLVING FOR HEAD 

 OUTPUT CONTROL FOR STRESS PERIOD    3   TIME STEP    9
    SAVE HEAD FOR ALL LAYERS
    SAVE DRAWDOWN FOR ALL LAYERS
    SAVE BUDGET
    PRINT HEAD FOR ALL LAYERS
    PRINT BUDGET
 UBDSV1 SAVING "         STORAGE" ON UNIT  53 AT TIME STEP  9, STRESS PERIOD   3
 UBDSV2 SAVING "   CONSTANT HEAD" ON UNIT  53 AT TIME STEP  9, STRESS PERIOD   3
 UBDSV1 SAVING "FLOW RIGHT FACE " ON UNIT  53 AT TIME STEP  9, STRESS PERIOD   3
 UBDSV1 SAVING "FLOW FRONT FACE " ON UNIT  53 AT TIME STEP  9, STRESS PERIOD   3
 UBDSV1 SAVING "FLOW LOWER FACE " ON UNIT  53 AT TIME STEP  9, STRESS PERIOD   3
1
              HEAD IN LAYER   1 AT END OF TIME STEP   9 IN STRESS PERIOD    3
  ---------------------------------------------------------------------------

            1           2           3           4           5           6           7           8           9          10
 ........................................................................................................................
   1   10.000       9.823       9.582       9.205       8.610       7.712       6.425       4.697       2.531      3.6917E-03
   2   10.000       9.823       9.581       9.202       8.604       7.709       6.424       4.697       2.531      3.6917E-03
   3   10.000       9.822       9.577       9.186       8.564       7.693       6.420       4.696       2.531      3.6914E-03
   4   10.000       9.819       9.562       9.117       8.310       7.624       6.406       4.694       2.530      3.6909E-03
   5   10.000       9.816       9.535       8.907       6.319       7.408       6.377       4.690       2.530      3.6900E-03
   6   10.000       9.819       9.562       9.117       8.310       7.624       6.406       4.694       2.530      3.6909E-03
   7   10.000       9.822       9.577       9.186       8.564       7.693       6.420       4.696       2.531      3.6914E-03
   8   10.000       9.823       9.581       9.202       8.604       7.709       6.424       4.697       2.531      3.6917E-03
   9   10.000       9.823       9.582       9.205       8.610       7.712       6.425       4.697       2.531      3.6917E-03
  10   10.000       9.823       9.582       9.205       8.611       7.712       6.425       4.697       2.531      3.6918E-03
1
              HEAD IN LAYER   2 AT END OF TIME STEP   9 IN STRESS PERIOD    3
  ---------------------------------------------------------------------------

            1           2           3           4           5           6           7           8           9          10
 ........................................................................................................................
   1   10.000       9.819       9.573       9.191       8.591       7.689       6.400       4.674       2.514      6.9374E-03
   2   10.000       9.819       9.572       9.187       8.583       7.685       6.399       4.674       2.514      6.9373E-03
   3   10.000       9.817       9.566       9.167       8.535       7.665       6.394       4.673       2.514      6.9367E-03
   4   10.000       9.814       9.549       9.086       8.255       7.584       6.377       4.670       2.514      6.9353E-03
   5   10.000       9.810       9.516       8.855       6.641       7.350       6.343       4.665       2.513      6.9337E-03
   6   10.000       9.814       9.549       9.086       8.255       7.584       6.377       4.670       2.514      6.9353E-03
   7   10.000       9.817       9.566       9.167       8.535       7.665       6.394       4.673       2.514      6.9367E-03
   8   10.000       9.819       9.572       9.187       8.584       7.685       6.399       4.674       2.514      6.9373E-03
   9   10.000       9.819       9.573       9.191       8.592       7.689       6.400       4.674       2.514      6.9374E-03
  10   10.000       9.819       9.573       9.192       8.593       7.689       6.401       4.674       2.514      6.9375E-03
1
              HEAD IN LAYER   3 AT END OF TIME STEP   9 IN STRESS PERIOD    3
  ---------------------------------------------------------------------------

            1           2           3           4           5           6           7           8           9          10
 ........................................................................................................................
   1   10.000       9.816       9.567       9.181       8.578       7.672       6.382       4.656       2.500      7.4178E-03
   2   10.000       9.816       9.566       9.177       8.569       7.667       6.380       4.655       2.500      7.4176E-03
   3   10.000       9.814       9.559       9.154       8.515       7.645       6.374       4.654       2.500      7.4168E-03
   4   10.000       9.811       9.539       9.064       8.220       7.555       6.354       4.650       2.499      7.4151E-03
   5   10.000       9.805       9.503       8.824       6.866       7.312       6.318       4.645       2.498      7.4131E-03
   6   10.000       9.811       9.539       9.064       8.220       7.555       6.354       4.650       2.499      7.4151E-03
   7   10.000       9.814       9.559       9.154       8.515       7.645       6.374       4.654       2.500      7.4168E-03
   8   10.000       9.816       9.566       9.177       8.569       7.668       6.380       4.655       2.500      7.4176E-03
   9   10.000       9.816       9.567       9.182       8.578       7.672       6.382       4.656       2.500      7.4178E-03
  10   10.000       9.816       9.568       9.183       8.580       7.673       6.382       4.656       2.500      7.4179E-03
1
              HEAD IN LAYER   4 AT END OF TIME STEP   9 IN STRESS PERIOD    3
  ---------------------------------------------------------------------------

            1           2           3           4           5           6           7           8           9          10
 ........................................................................................................................
   1   10.000       9.815       9.564       9.177       8.571       7.664       6.372       4.647       2.493      7.4512E-03
   2   10.000       9.814       9.563       9.172       8.562       7.659       6.371       4.646       2.493      7.4510E-03
   3   10.000       9.813       9.556       9.148       8.505       7.635       6.364       4.645       2.492      7.4502E-03
   4   10.000       9.809       9.535       9.053       8.205       7.540       6.343       4.641       2.492      7.4483E-03
   5   10.000       9.803       9.496       8.810       6.973       7.295       6.305       4.635       2.491      7.4461E-03
   6   10.000       9.809       9.535       9.053       8.205       7.540       6.343       4.641       2.492      7.4483E-03
   7   10.000       9.813       9.556       9.148       8.505       7.635       6.364       4.645       2.492      7.4502E-03
   8   10.000       9.814       9.563       9.172       8.562       7.659       6.371       4.646       2.493      7.4510E-03
   9   10.000       9.815       9.564       9.177       8.572       7.664       6.372       4.647       2.493      7.4512E-03
  10   10.000       9.815       9.565       9.178       8.573       7.665       6.373       4.647       2.493      7.4513E-03

 HEAD WILL BE SAVED ON UNIT   51 AT END OF TIME STEP    9, STRESS PERIOD    3

 DRAWDOWN WILL BE SAVED ON UNIT   52 AT END OF TIME STEP    9, STRESS PERIOD    3
1
  VOLUMETRIC BUDGET FOR ENTIRE MODEL AT END OF TIME STEP    9, STRESS PERIOD   3
  ------------------------------------------------------------------------------

     CUMULATIVE VOLUMES      L**3       RATES FOR THIS TIME STEP      L**3/T
     ------------------                 ------------------------

           IN:                                      IN:
           ---                                      ---
             STORAGE =      332807.0938               STORAGE =        1664.7377
       CONSTANT HEAD =           0.0000         CONSTANT HEAD =           0.0000
               WELLS =           0.0000                 WELLS =           0.0000
     HEAD DEP BOUNDS =        3311.1082       HEAD DEP BOUNDS =         110.0046

            TOTAL IN =      336118.1875              TOTAL IN =        1774.7423

          OUT:                                     OUT:
          ----                                     ----
             STORAGE =           0.0000               STORAGE =           0.0000
       CONSTANT HEAD =           0.0000         CONSTANT HEAD =           0.0000
               WELLS =        4500.0000                 WELLS =         500.0000
     HEAD DEP BOUNDS =      331619.3750       HEAD DEP BOUNDS =        1274.7094

           TOTAL OUT =      336119.3750             TOTAL OUT =        1774.7094

            IN - OUT =          -1.1875              IN - OUT =       3.2959E-02

 PERCENT DISCREPANCY =          -0.00     PERCENT DISCREPANCY =           0.00






         TIME SUMMARY AT END OF TIME STEP    9 IN STRESS PERIOD    3
                    SECONDS     MINUTES      HOURS       DAYS        YEARS
                    -----------------------------------------------------------
   TIME STEP LENGTH  86400.      1440.0      24.000      1.0000     2.73785E-03
 STRESS PERIOD TIME 7.77600E+05  12960.      216.00      9.0000     2.46407E-02
         TOTAL TIME 9.50400E+06 1.58400E+05  2640.0      110.00     0.30116    
1
 
 SOLVING FOR HEAD 

 OUTPUT CONTROL FOR STRESS PERIOD    3   TIME STEP   10
    SAVE HEAD FOR ALL LAYERS
    SAVE DRAWDOWN FOR ALL LAYERS
    SAVE BUDGET
    PRINT HEAD FOR ALL LAYERS
    PRINT BUDGET
 UBDSV1 SAVING "         STORAGE" ON UNIT  53 AT TIME STEP 10, STRESS PERIOD   3
 UBDSV2 SAVING "   CONSTANT HEAD" ON UNIT  53 AT TIME STEP 10, STRESS PERIOD   3
 UBDSV1 SAVING "FLOW RIGHT FACE " ON UNIT  53 AT TIME STEP 10, STRESS PERIOD   3
 UBDSV1 SAVING "FLOW FRONT FACE " ON UNIT  53 AT TIME STEP 10, STRESS PERIOD   3
 UBDSV1 SAVING "FLOW LOWER FACE " ON UNIT  53 AT TIME STEP 10, STRESS PERIOD   3
1
              HEAD IN LAYER   1 AT END OF TIME STEP  10 IN STRESS PERIOD    3
  ---------------------------------------------------------------------------

            1           2           3           4           5           6           7           8           9          10
 ........................................................................................................................
   1   10.000       9.819       9.574       9.192       8.593       7.691       6.404       4.679       2.520      3.6735E-03
   2   10.000       9.819       9.573       9.188       8.586       7.687       6.403       4.678       2.519      3.6734E-03
   3   10.000       9.818       9.567       9.169       8.538       7.668       6.397       4.677       2.519      3.6731E-03
   4   10.000       9.815       9.550       9.088       8.253       7.586       6.380       4.674       2.519      3.6722E-03
   5   10.000       9.810       9.517       8.854       6.172       7.346       6.346       4.669       2.518      3.6712E-03
   6   10.000       9.815       9.550       9.088       8.253       7.586       6.380       4.674       2.519      3.6722E-03
   7   10.000       9.818       9.567       9.169       8.538       7.668       6.397       4.677       2.519      3.6731E-03
   8   10.000       9.819       9.573       9.188       8.586       7.687       6.403       4.678       2.519      3.6734E-03
   9   10.000       9.819       9.574       9.192       8.594       7.691       6.404       4.679       2.520      3.6736E-03
  10   10.000       9.819       9.574       9.193       8.595       7.692       6.404       4.679       2.520      3.6736E-03
1
              HEAD IN LAYER   2 AT END OF TIME STEP  10 IN STRESS PERIOD    3
  ---------------------------------------------------------------------------

            1           2           3           4           5           6           7           8           9          10
 ........................................................................................................................
   1   10.000       9.815       9.565       9.178       8.574       7.668       6.379       4.656       2.503      6.9063E-03
   2   10.000       9.815       9.564       9.174       8.565       7.664       6.378       4.655       2.503      6.9060E-03
   3   10.000       9.813       9.557       9.150       8.508       7.640       6.371       4.654       2.503      6.9053E-03
   4   10.000       9.809       9.535       9.055       8.197       7.545       6.350       4.650       2.502      6.9034E-03
   5   10.000       9.804       9.497       8.802       6.508       7.288       6.312       4.645       2.501      6.9014E-03
   6   10.000       9.809       9.535       9.055       8.197       7.545       6.350       4.650       2.502      6.9034E-03
   7   10.000       9.813       9.557       9.150       8.508       7.640       6.371       4.654       2.503      6.9053E-03
   8   10.000       9.815       9.564       9.174       8.565       7.664       6.378       4.656       2.503      6.9060E-03
   9   10.000       9.815       9.565       9.179       8.575       7.669       6.379       4.656       2.503      6.9063E-03
  10   10.000       9.815       9.566       9.180       8.576       7.670       6.380       4.656       2.503      6.9064E-03
1
              HEAD IN LAYER   3 AT END OF TIME STEP  10 IN STRESS PERIOD    3
  ---------------------------------------------------------------------------

            1           2           3           4           5           6           7           8           9          10
 ........................................................................................................................
   1   10.000       9.812       9.559       9.169       8.561       7.652       6.361       4.638       2.489      7.3850E-03
   2   10.000       9.812       9.557       9.163       8.550       7.646       6.359       4.637       2.489      7.3847E-03
   3   10.000       9.810       9.550       9.136       8.488       7.619       6.351       4.635       2.488      7.3837E-03
   4   10.000       9.805       9.526       9.033       8.164       7.516       6.328       4.631       2.488      7.3814E-03
   5   10.000       9.799       9.484       8.772       6.743       7.252       6.286       4.625       2.487      7.3789E-03
   6   10.000       9.805       9.526       9.033       8.164       7.516       6.328       4.631       2.488      7.3814E-03
   7   10.000       9.810       9.550       9.136       8.488       7.620       6.351       4.635       2.488      7.3837E-03
   8   10.000       9.812       9.557       9.163       8.550       7.646       6.359       4.637       2.489      7.3847E-03
   9   10.000       9.812       9.559       9.169       8.561       7.652       6.361       4.638       2.489      7.3850E-03
  10   10.000       9.812       9.560       9.170       8.563       7.653       6.361       4.638       2.489      7.3851E-03
1
              HEAD IN LAYER   4 AT END OF TIME STEP  10 IN STRESS PERIOD    3
  ---------------------------------------------------------------------------

            1           2           3           4           5           6           7           8           9          10
 ........................................................................................................................
   1   10.000       9.811       9.556       9.164       8.554       7.644       6.352       4.628       2.482      7.4184E-03
   2   10.000       9.810       9.554       9.158       8.543       7.638       6.350       4.628       2.482      7.4181E-03
   3   10.000       9.808       9.546       9.130       8.478       7.609       6.341       4.626       2.481      7.4170E-03
   4   10.000       9.803       9.521       9.021       8.148       7.501       6.316       4.621       2.480      7.4146E-03
   5    9.999       9.797       9.478       8.758       6.856       7.235       6.273       4.615       2.479      7.4119E-03
   6   10.000       9.803       9.521       9.021       8.148       7.501       6.316       4.621       2.480      7.4146E-03
   7   10.000       9.808       9.546       9.130       8.478       7.609       6.341       4.626       2.481      7.4170E-03
   8   10.000       9.810       9.554       9.158       8.543       7.638       6.350       4.628       2.482      7.4181E-03
   9   10.000       9.811       9.556       9.165       8.555       7.644       6.352       4.628       2.482      7.4184E-03
  10   10.000       9.811       9.557       9.166       8.557       7.645       6.352       4.629       2.482      7.4185E-03

 HEAD WILL BE SAVED ON UNIT   51 AT END OF TIME STEP   10, STRESS PERIOD    3

 DRAWDOWN WILL BE SAVED ON UNIT   52 AT END OF TIME STEP   10, STRESS PERIOD    3
1
  VOLUMETRIC BUDGET FOR ENTIRE MODEL AT END OF TIME STEP   10, STRESS PERIOD   3
  ------------------------------------------------------------------------------

     CUMULATIVE VOLUMES      L**3       RATES FOR THIS TIME STEP      L**3/T
     ------------------                 ------------------------

           IN:                                      IN:
           ---                                      ---
             STORAGE =      334463.4062               STORAGE =        1656.3096
       CONSTANT HEAD =           0.0000         CONSTANT HEAD =           0.0000
               WELLS =           0.0000                 WELLS =           0.0000
     HEAD DEP BOUNDS =        3423.6865       HEAD DEP BOUNDS =         112.5783

            TOTAL IN =      337887.0938              TOTAL IN =        1768.8878

          OUT:                                     OUT:
          ----                                     ----
             STORAGE =           0.0000               STORAGE =           0.0000
       CONSTANT HEAD =           0.0000         CONSTANT HEAD =           0.0000
               WELLS =        5000.0000                 WELLS =         500.0000
     HEAD DEP BOUNDS =      332888.2812       HEAD DEP BOUNDS =        1268.8973

           TOTAL OUT =      337888.2812             TOTAL OUT =        1768.8973

            IN - OUT =          -1.1875              IN - OUT =      -9.5215E-03

 PERCENT DISCREPANCY =          -0.00     PERCENT DISCREPANCY =          -0.00






         TIME SUMMARY AT END OF TIME STEP   10 IN STRESS PERIOD    3
                    SECONDS     MINUTES      HOURS       DAYS        YEARS
                    -----------------------------------------------------------
   TIME STEP LENGTH  86400.      1440.0      24.000      1.0000     2.73785E-03
 STRESS PERIOD TIME 8.64000E+05  14400.      240.00      10.000     2.73785E-02
         TOTAL TIME 9.59040E+06 1.59840E+05  2664.0      111.00     0.30390    
1
 
 SOLVING FOR HEAD 

 OUTPUT CONTROL FOR STRESS PERIOD    3   TIME STEP   11
    SAVE HEAD FOR ALL LAYERS
    SAVE DRAWDOWN FOR ALL LAYERS
    SAVE BUDGET
    PRINT HEAD FOR ALL LAYERS
    PRINT BUDGET
 UBDSV1 SAVING "         STORAGE" ON UNIT  53 AT TIME STEP 11, STRESS PERIOD   3
 UBDSV2 SAVING "   CONSTANT HEAD" ON UNIT  53 AT TIME STEP 11, STRESS PERIOD   3
 UBDSV1 SAVING "FLOW RIGHT FACE " ON UNIT  53 AT TIME STEP 11, STRESS PERIOD   3
 UBDSV1 SAVING "FLOW FRONT FACE " ON UNIT  53 AT TIME STEP 11, STRESS PERIOD   3
 UBDSV1 SAVING "FLOW LOWER FACE " ON UNIT  53 AT TIME STEP 11, STRESS PERIOD   3
1
              HEAD IN LAYER   1 AT END OF TIME STEP  11 IN STRESS PERIOD    3
  ---------------------------------------------------------------------------

            1           2           3           4           5           6           7           8           9          10
 ........................................................................................................................
   1   10.000       9.816       9.566       9.180       8.576       7.671       6.383       4.660       2.508      3.6557E-03
   2   10.000       9.815       9.564       9.175       8.567       7.666       6.381       4.660       2.508      3.6556E-03
   3   10.000       9.814       9.558       9.151       8.511       7.643       6.375       4.658       2.508      3.6551E-03
   4   10.000       9.810       9.537       9.058       8.196       7.548       6.353       4.654       2.507      3.6540E-03
   5   10.000       9.804       9.499       8.801       6.039       7.285       6.315       4.649       2.506      3.6528E-03
   6   10.000       9.810       9.537       9.058       8.196       7.548       6.353       4.654       2.507      3.6540E-03
   7   10.000       9.814       9.558       9.151       8.511       7.643       6.375       4.658       2.508      3.6551E-03
   8   10.000       9.815       9.564       9.175       8.567       7.666       6.381       4.660       2.508      3.6556E-03
   9   10.000       9.816       9.566       9.180       8.577       7.671       6.383       4.660       2.508      3.6557E-03
  10   10.000       9.816       9.567       9.181       8.578       7.672       6.383       4.660       2.508      3.6558E-03
1
              HEAD IN LAYER   2 AT END OF TIME STEP  11 IN STRESS PERIOD    3
  ---------------------------------------------------------------------------

            1           2           3           4           5           6           7           8           9          10
 ........................................................................................................................
   1   10.000       9.811       9.557       9.166       8.557       7.648       6.359       4.638       2.492      6.8755E-03
   2   10.000       9.811       9.555       9.160       8.546       7.642       6.357       4.637       2.492      6.8752E-03
   3   10.000       9.809       9.547       9.131       8.481       7.614       6.348       4.635       2.492      6.8742E-03
   4   10.000       9.804       9.522       9.024       8.141       7.506       6.324       4.630       2.491      6.8719E-03
   5    9.999       9.797       9.479       8.750       6.385       7.228       6.280       4.624       2.490      6.8694E-03
   6   10.000       9.804       9.522       9.024       8.141       7.506       6.324       4.630       2.491      6.8719E-03
   7   10.000       9.809       9.547       9.132       8.481       7.614       6.348       4.635       2.492      6.8742E-03
   8   10.000       9.811       9.555       9.160       8.546       7.642       6.357       4.637       2.492      6.8752E-03
   9   10.000       9.811       9.557       9.166       8.558       7.649       6.359       4.638       2.492      6.8756E-03
  10   10.000       9.811       9.558       9.168       8.560       7.650       6.359       4.638       2.492      6.8757E-03
1
              HEAD IN LAYER   3 AT END OF TIME STEP  11 IN STRESS PERIOD    3
  ---------------------------------------------------------------------------

            1           2           3           4           5           6           7           8           9          10
 ........................................................................................................................
   1   10.000       9.808       9.551       9.156       8.544       7.632       6.340       4.620       2.478      7.3526E-03
   2   10.000       9.808       9.549       9.150       8.531       7.625       6.338       4.619       2.478      7.3522E-03
   3   10.000       9.806       9.539       9.118       8.460       7.593       6.328       4.617       2.477      7.3509E-03
   4   10.000       9.800       9.511       9.001       8.108       7.476       6.301       4.611       2.476      7.3481E-03
   5    9.999       9.793       9.465       8.720       6.631       7.192       6.254       4.604       2.475      7.3450E-03
   6   10.000       9.800       9.511       9.001       8.108       7.476       6.301       4.611       2.476      7.3481E-03
   7   10.000       9.806       9.539       9.118       8.460       7.594       6.328       4.617       2.477      7.3509E-03
   8   10.000       9.808       9.549       9.150       8.531       7.625       6.338       4.619       2.478      7.3522E-03
   9   10.000       9.809       9.552       9.157       8.545       7.632       6.340       4.620       2.478      7.3526E-03
  10   10.000       9.809       9.552       9.158       8.547       7.634       6.341       4.620       2.478      7.3527E-03
1
              HEAD IN LAYER   4 AT END OF TIME STEP  11 IN STRESS PERIOD    3
  ---------------------------------------------------------------------------

            1           2           3           4           5           6           7           8           9          10
 ........................................................................................................................
   1   10.000       9.807       9.548       9.152       8.537       7.624       6.331       4.611       2.471      7.3861E-03
   2   10.000       9.806       9.546       9.144       8.524       7.616       6.328       4.610       2.471      7.3856E-03
   3   10.000       9.804       9.536       9.111       8.450       7.583       6.318       4.608       2.470      7.3842E-03
   4    9.999       9.798       9.506       8.989       8.093       7.461       6.289       4.602       2.469      7.3812E-03
   5    9.999       9.791       9.458       8.707       6.747       7.176       6.241       4.594       2.468      7.3779E-03
   6    9.999       9.798       9.506       8.989       8.093       7.461       6.289       4.602       2.469      7.3812E-03
   7   10.000       9.804       9.536       9.111       8.450       7.583       6.318       4.608       2.470      7.3842E-03
   8   10.000       9.806       9.546       9.144       8.524       7.616       6.328       4.610       2.471      7.3856E-03
   9   10.000       9.807       9.549       9.152       8.538       7.624       6.331       4.611       2.471      7.3861E-03
  10   10.000       9.807       9.549       9.154       8.540       7.625       6.332       4.611       2.471      7.3862E-03

 HEAD WILL BE SAVED ON UNIT   51 AT END OF TIME STEP   11, STRESS PERIOD    3

 DRAWDOWN WILL BE SAVED ON UNIT   52 AT END OF TIME STEP   11, STRESS PERIOD    3
1
  VOLUMETRIC BUDGET FOR ENTIRE MODEL AT END OF TIME STEP   11, STRESS PERIOD   3
  ------------------------------------------------------------------------------

     CUMULATIVE VOLUMES      L**3       RATES FOR THIS TIME STEP      L**3/T
     ------------------                 ------------------------

           IN:                                      IN:
           ---                                      ---
             STORAGE =      336111.3438               STORAGE =        1647.9291
       CONSTANT HEAD =           0.0000         CONSTANT HEAD =           0.0000
               WELLS =           0.0000                 WELLS =           0.0000
     HEAD DEP BOUNDS =        3538.9302       HEAD DEP BOUNDS =         115.2437

            TOTAL IN =      339650.2812              TOTAL IN =        1763.1727

          OUT:                                     OUT:
          ----                                     ----
             STORAGE =           0.0000               STORAGE =           0.0000
       CONSTANT HEAD =           0.0000         CONSTANT HEAD =           0.0000
               WELLS =        5500.0000                 WELLS =         500.0000
     HEAD DEP BOUNDS =      334151.4375       HEAD DEP BOUNDS =        1263.1582

           TOTAL OUT =      339651.4375             TOTAL OUT =        1763.1582

            IN - OUT =          -1.1562              IN - OUT =       1.4526E-02

 PERCENT DISCREPANCY =          -0.00     PERCENT DISCREPANCY =           0.00






         TIME SUMMARY AT END OF TIME STEP   11 IN STRESS PERIOD    3
                    SECONDS     MINUTES      HOURS       DAYS        YEARS
                    -----------------------------------------------------------
   TIME STEP LENGTH  86400.      1440.0      24.000      1.0000     2.73785E-03
 STRESS PERIOD TIME 9.50400E+05  15840.      264.00      11.000     3.01164E-02
         TOTAL TIME 9.67680E+06 1.61280E+05  2688.0      112.00     0.30664    
1
 
 SOLVING FOR HEAD 

 OUTPUT CONTROL FOR STRESS PERIOD    3   TIME STEP   12
    SAVE HEAD FOR ALL LAYERS
    SAVE DRAWDOWN FOR ALL LAYERS
    SAVE BUDGET
    PRINT HEAD FOR ALL LAYERS
    PRINT BUDGET
 UBDSV1 SAVING "         STORAGE" ON UNIT  53 AT TIME STEP 12, STRESS PERIOD   3
 UBDSV2 SAVING "   CONSTANT HEAD" ON UNIT  53 AT TIME STEP 12, STRESS PERIOD   3
 UBDSV1 SAVING "FLOW RIGHT FACE " ON UNIT  53 AT TIME STEP 12, STRESS PERIOD   3
 UBDSV1 SAVING "FLOW FRONT FACE " ON UNIT  53 AT TIME STEP 12, STRESS PERIOD   3
 UBDSV1 SAVING "FLOW LOWER FACE " ON UNIT  53 AT TIME STEP 12, STRESS PERIOD   3
1
              HEAD IN LAYER   1 AT END OF TIME STEP  12 IN STRESS PERIOD    3
  ---------------------------------------------------------------------------

            1           2           3           4           5           6           7           8           9          10
 ........................................................................................................................
   1   10.000       9.812       9.558       9.167       8.559       7.651       6.362       4.642       2.497      3.6379E-03
   2   10.000       9.811       9.556       9.161       8.548       7.645       6.360       4.641       2.497      3.6377E-03
   3   10.000       9.809       9.548       9.133       8.484       7.617       6.352       4.640       2.497      3.6372E-03
   4   10.000       9.804       9.523       9.027       8.139       7.509       6.327       4.635       2.496      3.6356E-03
   5   10.000       9.798       9.481       8.750       5.916       7.225       6.283       4.628       2.495      3.6342E-03
   6   10.000       9.804       9.523       9.027       8.139       7.509       6.327       4.635       2.496      3.6357E-03
   7   10.000       9.809       9.548       9.133       8.484       7.617       6.352       4.640       2.497      3.6372E-03
   8   10.000       9.811       9.556       9.161       8.548       7.645       6.360       4.641       2.497      3.6378E-03
   9   10.000       9.812       9.558       9.168       8.560       7.651       6.362       4.642       2.497      3.6379E-03
  10   10.000       9.812       9.559       9.169       8.562       7.653       6.363       4.642       2.497      3.6380E-03
1
              HEAD IN LAYER   2 AT END OF TIME STEP  12 IN STRESS PERIOD    3
  ---------------------------------------------------------------------------

            1           2           3           4           5           6           7           8           9          10
 ........................................................................................................................
   1   10.000       9.807       9.549       9.153       8.540       7.628       6.338       4.620       2.481      6.8452E-03
   2   10.000       9.807       9.547       9.146       8.527       7.621       6.335       4.619       2.481      6.8447E-03
   3   10.000       9.804       9.537       9.113       8.454       7.588       6.325       4.617       2.481      6.8434E-03
   4    9.999       9.798       9.507       8.992       8.086       7.467       6.297       4.611       2.480      6.8405E-03
   5    9.999       9.791       9.460       8.700       6.273       7.169       6.248       4.603       2.478      6.8375E-03
   6    9.999       9.798       9.507       8.992       8.086       7.467       6.297       4.611       2.480      6.8405E-03
   7   10.000       9.804       9.537       9.113       8.454       7.588       6.325       4.617       2.481      6.8434E-03
   8   10.000       9.807       9.547       9.146       8.527       7.621       6.335       4.619       2.481      6.8448E-03
   9   10.000       9.808       9.550       9.154       8.541       7.629       6.338       4.620       2.481      6.8452E-03
  10   10.000       9.808       9.550       9.155       8.543       7.630       6.339       4.620       2.481      6.8453E-03
1
              HEAD IN LAYER   3 AT END OF TIME STEP  12 IN STRESS PERIOD    3
  ---------------------------------------------------------------------------

            1           2           3           4           5           6           7           8           9          10
 ........................................................................................................................
   1   10.000       9.805       9.543       9.144       8.527       7.612       6.320       4.602       2.467      7.3206E-03
   2   10.000       9.804       9.540       9.136       8.512       7.604       6.317       4.601       2.467      7.3201E-03
   3   10.000       9.801       9.529       9.099       8.432       7.567       6.305       4.598       2.466      7.3184E-03
   4    9.999       9.794       9.497       8.969       8.053       7.437       6.273       4.592       2.465      7.3149E-03
   5    9.999       9.786       9.446       8.670       6.526       7.134       6.222       4.583       2.464      7.3113E-03
   6    9.999       9.794       9.497       8.969       8.053       7.437       6.273       4.592       2.465      7.3149E-03
   7   10.000       9.801       9.529       9.099       8.432       7.567       6.305       4.598       2.466      7.3184E-03
   8   10.000       9.804       9.540       9.136       8.512       7.604       6.317       4.601       2.467      7.3201E-03
   9   10.000       9.805       9.544       9.144       8.528       7.612       6.320       4.602       2.467      7.3207E-03
  10   10.000       9.805       9.544       9.146       8.531       7.614       6.320       4.602       2.467      7.3208E-03
1
              HEAD IN LAYER   4 AT END OF TIME STEP  12 IN STRESS PERIOD    3
  ---------------------------------------------------------------------------

            1           2           3           4           5           6           7           8           9          10
 ........................................................................................................................
   1   10.000       9.803       9.540       9.139       8.520       7.604       6.310       4.593       2.460      7.3541E-03
   2   10.000       9.802       9.537       9.130       8.505       7.595       6.307       4.592       2.460      7.3535E-03
   3   10.000       9.799       9.525       9.092       8.422       7.557       6.295       4.589       2.459      7.3517E-03
   4    9.999       9.792       9.491       8.957       8.038       7.422       6.262       4.582       2.458      7.3480E-03
   5    9.999       9.784       9.439       8.657       6.647       7.118       6.209       4.573       2.457      7.3441E-03
   6    9.999       9.792       9.491       8.957       8.038       7.422       6.262       4.582       2.458      7.3480E-03
   7   10.000       9.799       9.525       9.092       8.422       7.557       6.295       4.589       2.459      7.3517E-03
   8   10.000       9.802       9.537       9.130       8.505       7.595       6.307       4.592       2.460      7.3535E-03
   9   10.000       9.803       9.541       9.140       8.521       7.604       6.311       4.593       2.460      7.3541E-03
  10   10.000       9.804       9.541       9.141       8.524       7.606       6.311       4.593       2.460      7.3543E-03

 HEAD WILL BE SAVED ON UNIT   51 AT END OF TIME STEP   12, STRESS PERIOD    3

 DRAWDOWN WILL BE SAVED ON UNIT   52 AT END OF TIME STEP   12, STRESS PERIOD    3
1
  VOLUMETRIC BUDGET FOR ENTIRE MODEL AT END OF TIME STEP   12, STRESS PERIOD   3
  ------------------------------------------------------------------------------

     CUMULATIVE VOLUMES      L**3       RATES FOR THIS TIME STEP      L**3/T
     ------------------                 ------------------------

           IN:                                      IN:
           ---                                      ---
             STORAGE =      337750.8438               STORAGE =        1639.5078
       CONSTANT HEAD =           0.0000         CONSTANT HEAD =           0.0000
               WELLS =           0.0000                 WELLS =           0.0000
     HEAD DEP BOUNDS =        3656.8835       HEAD DEP BOUNDS =         117.9534

            TOTAL IN =      341407.7188              TOTAL IN =        1757.4612

          OUT:                                     OUT:
          ----                                     ----
             STORAGE =           0.0000               STORAGE =           0.0000
       CONSTANT HEAD =           0.0000         CONSTANT HEAD =           0.0000
               WELLS =        6000.0000                 WELLS =         500.0000
     HEAD DEP BOUNDS =      335408.9062       HEAD DEP BOUNDS =        1257.4663

           TOTAL OUT =      341408.9062             TOTAL OUT =        1757.4663

            IN - OUT =          -1.1875              IN - OUT =      -5.1270E-03

 PERCENT DISCREPANCY =          -0.00     PERCENT DISCREPANCY =          -0.00






         TIME SUMMARY AT END OF TIME STEP   12 IN STRESS PERIOD    3
                    SECONDS     MINUTES      HOURS       DAYS        YEARS
                    -----------------------------------------------------------
   TIME STEP LENGTH  86400.      1440.0      24.000      1.0000     2.73785E-03
 STRESS PERIOD TIME 1.03680E+06  17280.      288.00      12.000     3.28542E-02
         TOTAL TIME 9.76320E+06 1.62720E+05  2712.0      113.00     0.30938    
1
 
 SOLVING FOR HEAD 

 OUTPUT CONTROL FOR STRESS PERIOD    3   TIME STEP   13
    SAVE HEAD FOR ALL LAYERS
    SAVE DRAWDOWN FOR ALL LAYERS
    SAVE BUDGET
    PRINT HEAD FOR ALL LAYERS
    PRINT BUDGET
 UBDSV1 SAVING "         STORAGE" ON UNIT  53 AT TIME STEP 13, STRESS PERIOD   3
 UBDSV2 SAVING "   CONSTANT HEAD" ON UNIT  53 AT TIME STEP 13, STRESS PERIOD   3
 UBDSV1 SAVING "FLOW RIGHT FACE " ON UNIT  53 AT TIME STEP 13, STRESS PERIOD   3
 UBDSV1 SAVING "FLOW FRONT FACE " ON UNIT  53 AT TIME STEP 13, STRESS PERIOD   3
 UBDSV1 SAVING "FLOW LOWER FACE " ON UNIT  53 AT TIME STEP 13, STRESS PERIOD   3
1
              HEAD IN LAYER   1 AT END OF TIME STEP  13 IN STRESS PERIOD    3
  ---------------------------------------------------------------------------

            1           2           3           4           5           6           7           8           9          10
 ........................................................................................................................
   1   10.000       9.808       9.550       9.155       8.542       7.631       6.341       4.624       2.486      3.6206E-03
   2   10.000       9.807       9.548       9.148       8.529       7.624       6.339       4.623       2.486      3.6203E-03
   3   10.000       9.805       9.538       9.115       8.456       7.591       6.329       4.621       2.486      3.6195E-03
   4   10.000       9.799       9.509       8.995       8.084       7.470       6.300       4.615       2.484      3.6177E-03
   5    9.999       9.792       9.462       8.699       5.804       7.166       6.251       4.607       2.483      3.6160E-03
   6   10.000       9.799       9.509       8.995       8.084       7.470       6.300       4.615       2.484      3.6177E-03
   7   10.000       9.805       9.538       9.115       8.456       7.591       6.329       4.621       2.486      3.6195E-03
   8   10.000       9.807       9.548       9.148       8.529       7.624       6.339       4.623       2.486      3.6203E-03
   9   10.000       9.808       9.550       9.155       8.543       7.631       6.341       4.624       2.486      3.6207E-03
  10   10.000       9.808       9.551       9.157       8.546       7.633       6.342       4.624       2.486      3.6207E-03
1
              HEAD IN LAYER   2 AT END OF TIME STEP  13 IN STRESS PERIOD    3
  ---------------------------------------------------------------------------

            1           2           3           4           5           6           7           8           9          10
 ........................................................................................................................
   1   10.000       9.804       9.541       9.141       8.523       7.608       6.317       4.602       2.470      6.8152E-03
   2   10.000       9.803       9.538       9.132       8.508       7.600       6.314       4.601       2.470      6.8146E-03
   3   10.000       9.800       9.526       9.094       8.426       7.562       6.302       4.598       2.470      6.8130E-03
   4    9.999       9.793       9.493       8.961       8.032       7.428       6.269       4.591       2.468      6.8094E-03
   5    9.999       9.784       9.440       8.650       6.169       7.111       6.216       4.583       2.467      6.8059E-03
   6    9.999       9.793       9.493       8.961       8.032       7.428       6.269       4.591       2.468      6.8094E-03
   7   10.000       9.800       9.526       9.094       8.426       7.562       6.302       4.598       2.470      6.8130E-03
   8   10.000       9.803       9.538       9.132       8.508       7.600       6.314       4.601       2.470      6.8147E-03
   9   10.000       9.804       9.542       9.141       8.524       7.609       6.317       4.602       2.470      6.8153E-03
  10   10.000       9.804       9.542       9.143       8.527       7.611       6.318       4.602       2.470      6.8154E-03
1
              HEAD IN LAYER   3 AT END OF TIME STEP  13 IN STRESS PERIOD    3
  ---------------------------------------------------------------------------

            1           2           3           4           5           6           7           8           9          10
 ........................................................................................................................
   1   10.000       9.801       9.535       9.131       8.510       7.592       6.299       4.584       2.457      7.2890E-03
   2   10.000       9.800       9.532       9.121       8.493       7.582       6.296       4.583       2.456      7.2884E-03
   3    9.999       9.796       9.518       9.080       8.404       7.541       6.282       4.580       2.456      7.2863E-03
   4    9.999       9.789       9.482       8.937       8.000       7.397       6.246       4.572       2.454      7.2820E-03
   5    9.999       9.779       9.426       8.621       6.430       7.077       6.189       4.563       2.453      7.2778E-03
   6    9.999       9.789       9.482       8.937       8.000       7.397       6.246       4.572       2.454      7.2820E-03
   7    9.999       9.796       9.518       9.080       8.404       7.541       6.282       4.580       2.456      7.2863E-03
   8   10.000       9.800       9.532       9.122       8.493       7.582       6.296       4.583       2.456      7.2884E-03
   9   10.000       9.801       9.536       9.132       8.511       7.593       6.299       4.584       2.457      7.2891E-03
  10   10.000       9.801       9.536       9.134       8.514       7.595       6.300       4.585       2.457      7.2893E-03
1
              HEAD IN LAYER   4 AT END OF TIME STEP  13 IN STRESS PERIOD    3
  ---------------------------------------------------------------------------

            1           2           3           4           5           6           7           8           9          10
 ........................................................................................................................
   1   10.000       9.799       9.532       9.126       8.503       7.584       6.290       4.575       2.450      7.3225E-03
   2    9.999       9.798       9.528       9.116       8.485       7.574       6.286       4.574       2.449      7.3218E-03
   3    9.999       9.795       9.514       9.072       8.394       7.530       6.272       4.571       2.449      7.3196E-03
   4    9.999       9.787       9.476       8.925       7.985       7.382       6.234       4.563       2.447      7.3150E-03
   5    9.999       9.777       9.419       8.609       6.554       7.061       6.176       4.553       2.446      7.3105E-03
   6    9.999       9.787       9.476       8.925       7.985       7.382       6.234       4.563       2.447      7.3150E-03
   7    9.999       9.795       9.514       9.072       8.394       7.530       6.272       4.571       2.449      7.3196E-03
   8    9.999       9.798       9.528       9.116       8.485       7.574       6.286       4.574       2.449      7.3218E-03
   9   10.000       9.799       9.533       9.127       8.504       7.584       6.290       4.575       2.450      7.3226E-03
  10   10.000       9.800       9.534       9.129       8.508       7.587       6.291       4.576       2.450      7.3228E-03

 HEAD WILL BE SAVED ON UNIT   51 AT END OF TIME STEP   13, STRESS PERIOD    3

 DRAWDOWN WILL BE SAVED ON UNIT   52 AT END OF TIME STEP   13, STRESS PERIOD    3
1
  VOLUMETRIC BUDGET FOR ENTIRE MODEL AT END OF TIME STEP   13, STRESS PERIOD   3
  ------------------------------------------------------------------------------

     CUMULATIVE VOLUMES      L**3       RATES FOR THIS TIME STEP      L**3/T
     ------------------                 ------------------------

           IN:                                      IN:
           ---                                      ---
             STORAGE =      339381.9688               STORAGE =        1631.1139
       CONSTANT HEAD =           0.0000         CONSTANT HEAD =           0.0000
               WELLS =           0.0000                 WELLS =           0.0000
     HEAD DEP BOUNDS =        3777.6240       HEAD DEP BOUNDS =         120.7406

            TOTAL IN =      343159.5938              TOTAL IN =        1751.8545

          OUT:                                     OUT:
          ----                                     ----
             STORAGE =           0.0000               STORAGE =           0.0000
       CONSTANT HEAD =           0.0000         CONSTANT HEAD =           0.0000
               WELLS =        6500.0000                 WELLS =         500.0000
     HEAD DEP BOUNDS =      336660.7500       HEAD DEP BOUNDS =        1251.8442

           TOTAL OUT =      343160.7500             TOTAL OUT =        1751.8442

            IN - OUT =          -1.1562              IN - OUT =       1.0254E-02

 PERCENT DISCREPANCY =          -0.00     PERCENT DISCREPANCY =           0.00






         TIME SUMMARY AT END OF TIME STEP   13 IN STRESS PERIOD    3
                    SECONDS     MINUTES      HOURS       DAYS        YEARS
                    -----------------------------------------------------------
   TIME STEP LENGTH  86400.      1440.0      24.000      1.0000     2.73785E-03
 STRESS PERIOD TIME 1.12320E+06  18720.      312.00      13.000     3.55921E-02
         TOTAL TIME 9.84960E+06 1.64160E+05  2736.0      114.00     0.31211    
1
 
 SOLVING FOR HEAD 

 OUTPUT CONTROL FOR STRESS PERIOD    3   TIME STEP   14
    SAVE HEAD FOR ALL LAYERS
    SAVE DRAWDOWN FOR ALL LAYERS
    SAVE BUDGET
    PRINT HEAD FOR ALL LAYERS
    PRINT BUDGET
 UBDSV1 SAVING "         STORAGE" ON UNIT  53 AT TIME STEP 14, STRESS PERIOD   3
 UBDSV2 SAVING "   CONSTANT HEAD" ON UNIT  53 AT TIME STEP 14, STRESS PERIOD   3
 UBDSV1 SAVING "FLOW RIGHT FACE " ON UNIT  53 AT TIME STEP 14, STRESS PERIOD   3
 UBDSV1 SAVING "FLOW FRONT FACE " ON UNIT  53 AT TIME STEP 14, STRESS PERIOD   3
 UBDSV1 SAVING "FLOW LOWER FACE " ON UNIT  53 AT TIME STEP 14, STRESS PERIOD   3
1
              HEAD IN LAYER   1 AT END OF TIME STEP  14 IN STRESS PERIOD    3
  ---------------------------------------------------------------------------

            1           2           3           4           5           6           7           8           9          10
 ........................................................................................................................
   1   10.000       9.804       9.542       9.142       8.525       7.611       6.321       4.606       2.475      3.6034E-03
   2   10.000       9.803       9.539       9.134       8.510       7.602       6.318       4.605       2.475      3.6030E-03
   3   10.000       9.800       9.527       9.096       8.428       7.565       6.306       4.602       2.475      3.6019E-03
   4    9.999       9.793       9.494       8.964       8.030       7.431       6.272       4.595       2.473      3.5998E-03
   5    9.999       9.785       9.442       8.650       5.700       7.108       6.219       4.587       2.472      3.5977E-03
   6    9.999       9.793       9.494       8.964       8.030       7.431       6.272       4.595       2.473      3.5998E-03
   7   10.000       9.800       9.527       9.096       8.428       7.565       6.306       4.602       2.475      3.6019E-03
   8   10.000       9.803       9.539       9.134       8.510       7.603       6.318       4.605       2.475      3.6030E-03
   9   10.000       9.804       9.542       9.143       8.526       7.612       6.321       4.606       2.475      3.6034E-03
  10   10.000       9.804       9.543       9.145       8.529       7.613       6.322       4.607       2.475      3.6035E-03
1
              HEAD IN LAYER   2 AT END OF TIME STEP  14 IN STRESS PERIOD    3
  ---------------------------------------------------------------------------

            1           2           3           4           5           6           7           8           9          10
 ........................................................................................................................
   1   10.000       9.800       9.533       9.128       8.506       7.589       6.297       4.584       2.460      6.7856E-03
   2    9.999       9.799       9.529       9.118       8.488       7.578       6.293       4.583       2.459      6.7849E-03
   3    9.999       9.795       9.515       9.075       8.397       7.535       6.279       4.580       2.459      6.7828E-03
   4    9.999       9.787       9.478       8.928       7.979       7.388       6.242       4.572       2.457      6.7786E-03
   5    9.999       9.778       9.421       8.602       6.072       7.055       6.184       4.562       2.456      6.7744E-03
   6    9.999       9.787       9.478       8.928       7.979       7.388       6.242       4.572       2.457      6.7786E-03
   7    9.999       9.795       9.515       9.075       8.397       7.535       6.279       4.580       2.459      6.7828E-03
   8    9.999       9.799       9.529       9.118       8.488       7.578       6.293       4.583       2.460      6.7849E-03
   9   10.000       9.800       9.534       9.129       8.507       7.589       6.297       4.585       2.460      6.7857E-03
  10   10.000       9.800       9.535       9.131       8.511       7.591       6.298       4.585       2.460      6.7859E-03
1
              HEAD IN LAYER   3 AT END OF TIME STEP  14 IN STRESS PERIOD    3
  ---------------------------------------------------------------------------

            1           2           3           4           5           6           7           8           9          10
 ........................................................................................................................
   1    9.999       9.797       9.527       9.118       8.493       7.572       6.279       4.567       2.446      7.2578E-03
   2    9.999       9.796       9.523       9.107       8.473       7.561       6.275       4.566       2.446      7.2570E-03
   3    9.999       9.792       9.507       9.060       8.376       7.514       6.259       4.562       2.445      7.2545E-03
   4    9.999       9.783       9.466       8.904       7.948       7.357       6.218       4.553       2.443      7.2494E-03
   5    9.999       9.772       9.406       8.574       6.339       7.021       6.157       4.542       2.441      7.2444E-03
   6    9.999       9.783       9.466       8.904       7.948       7.357       6.218       4.553       2.443      7.2494E-03
   7    9.999       9.792       9.507       9.060       8.376       7.514       6.259       4.562       2.445      7.2545E-03
   8    9.999       9.796       9.523       9.107       8.473       7.561       6.275       4.566       2.446      7.2570E-03
   9    9.999       9.797       9.527       9.119       8.494       7.573       6.279       4.567       2.446      7.2579E-03
  10    9.999       9.797       9.529       9.122       8.498       7.575       6.280       4.567       2.446      7.2582E-03
1
              HEAD IN LAYER   4 AT END OF TIME STEP  14 IN STRESS PERIOD    3
  ---------------------------------------------------------------------------

            1           2           3           4           5           6           7           8           9          10
 ........................................................................................................................
   1    9.999       9.795       9.524       9.114       8.486       7.564       6.270       4.558       2.439      7.2913E-03
   2    9.999       9.794       9.520       9.102       8.466       7.552       6.265       4.557       2.439      7.2904E-03
   3    9.999       9.790       9.503       9.053       8.365       7.503       6.249       4.553       2.438      7.2877E-03
   4    9.999       9.781       9.461       8.893       7.934       7.342       6.207       4.543       2.436      7.2823E-03
   5    9.999       9.770       9.399       8.561       6.466       7.006       6.144       4.532       2.434      7.2771E-03
   6    9.999       9.781       9.461       8.893       7.934       7.342       6.207       4.543       2.436      7.2823E-03
   7    9.999       9.790       9.503       9.053       8.365       7.503       6.249       4.553       2.438      7.2877E-03
   8    9.999       9.794       9.520       9.102       8.466       7.552       6.265       4.557       2.439      7.2904E-03
   9    9.999       9.796       9.524       9.114       8.487       7.565       6.270       4.558       2.439      7.2914E-03
  10    9.999       9.796       9.526       9.117       8.491       7.567       6.271       4.559       2.439      7.2917E-03

 HEAD WILL BE SAVED ON UNIT   51 AT END OF TIME STEP   14, STRESS PERIOD    3

 DRAWDOWN WILL BE SAVED ON UNIT   52 AT END OF TIME STEP   14, STRESS PERIOD    3
1
  VOLUMETRIC BUDGET FOR ENTIRE MODEL AT END OF TIME STEP   14, STRESS PERIOD   3
  ------------------------------------------------------------------------------

     CUMULATIVE VOLUMES      L**3       RATES FOR THIS TIME STEP      L**3/T
     ------------------                 ------------------------

           IN:                                      IN:
           ---                                      ---
             STORAGE =      341004.6875               STORAGE =        1622.7085
       CONSTANT HEAD =           0.0000         CONSTANT HEAD =           0.0000
               WELLS =           0.0000                 WELLS =           0.0000
     HEAD DEP BOUNDS =        3901.2019       HEAD DEP BOUNDS =         123.5778

            TOTAL IN =      344905.8750              TOTAL IN =        1746.2864

          OUT:                                     OUT:
          ----                                     ----
             STORAGE =           0.0000               STORAGE =           0.0000
       CONSTANT HEAD =           0.0000         CONSTANT HEAD =           0.0000
               WELLS =        7000.0000                 WELLS =         500.0000
     HEAD DEP BOUNDS =      337907.0312       HEAD DEP BOUNDS =        1246.2697

           TOTAL OUT =      344907.0312             TOTAL OUT =        1746.2697

            IN - OUT =          -1.1562              IN - OUT =       1.6724E-02

 PERCENT DISCREPANCY =          -0.00     PERCENT DISCREPANCY =           0.00






         TIME SUMMARY AT END OF TIME STEP   14 IN STRESS PERIOD    3
                    SECONDS     MINUTES      HOURS       DAYS        YEARS
                    -----------------------------------------------------------
   TIME STEP LENGTH  86400.      1440.0      24.000      1.0000     2.73785E-03
 STRESS PERIOD TIME 1.20960E+06  20160.      336.00      14.000     3.83299E-02
         TOTAL TIME 9.93600E+06 1.65600E+05  2760.0      115.00     0.31485    
1
 
 SOLVING FOR HEAD 

 OUTPUT CONTROL FOR STRESS PERIOD    3   TIME STEP   15
    SAVE HEAD FOR ALL LAYERS
    SAVE DRAWDOWN FOR ALL LAYERS
    SAVE BUDGET
    PRINT HEAD FOR ALL LAYERS
    PRINT BUDGET
 UBDSV1 SAVING "         STORAGE" ON UNIT  53 AT TIME STEP 15, STRESS PERIOD   3
 UBDSV2 SAVING "   CONSTANT HEAD" ON UNIT  53 AT TIME STEP 15, STRESS PERIOD   3
 UBDSV1 SAVING "FLOW RIGHT FACE " ON UNIT  53 AT TIME STEP 15, STRESS PERIOD   3
 UBDSV1 SAVING "FLOW FRONT FACE " ON UNIT  53 AT TIME STEP 15, STRESS PERIOD   3
 UBDSV1 SAVING "FLOW LOWER FACE " ON UNIT  53 AT TIME STEP 15, STRESS PERIOD   3
1
              HEAD IN LAYER   1 AT END OF TIME STEP  15 IN STRESS PERIOD    3
  ---------------------------------------------------------------------------

            1           2           3           4           5           6           7           8           9          10
 ........................................................................................................................
   1   10.000       9.800       9.534       9.130       8.508       7.591       6.300       4.589       2.465      3.5862E-03
   2   10.000       9.799       9.530       9.119       8.490       7.581       6.297       4.588       2.464      3.5858E-03
   3    9.999       9.796       9.516       9.076       8.400       7.538       6.283       4.584       2.464      3.5846E-03
   4    9.999       9.788       9.479       8.932       7.977       7.391       6.245       4.576       2.462      3.5822E-03
   5    9.999       9.778       9.423       8.602       5.603       7.052       6.187       4.566       2.461      3.5796E-03
   6    9.999       9.788       9.479       8.932       7.977       7.391       6.245       4.576       2.462      3.5822E-03
   7    9.999       9.796       9.516       9.077       8.400       7.538       6.283       4.584       2.464      3.5846E-03
   8   10.000       9.799       9.530       9.120       8.491       7.581       6.297       4.588       2.464      3.5858E-03
   9   10.000       9.800       9.534       9.130       8.509       7.592       6.301       4.589       2.465      3.5862E-03
  10   10.000       9.801       9.535       9.132       8.513       7.594       6.301       4.589       2.465      3.5865E-03
1
              HEAD IN LAYER   2 AT END OF TIME STEP  15 IN STRESS PERIOD    3
  ---------------------------------------------------------------------------

            1           2           3           4           5           6           7           8           9          10
 ........................................................................................................................
   1    9.999       9.796       9.525       9.115       8.489       7.569       6.277       4.567       2.449      6.7563E-03
   2    9.999       9.795       9.521       9.104       8.469       7.557       6.272       4.566       2.449      6.7555E-03
   3    9.999       9.790       9.504       9.055       8.369       7.508       6.256       4.562       2.448      6.7529E-03
   4    9.999       9.781       9.462       8.896       7.927       7.349       6.214       4.552       2.446      6.7479E-03
   5    9.999       9.771       9.401       8.554       5.981       7.000       6.152       4.541       2.444      6.7431E-03
   6    9.999       9.781       9.462       8.896       7.927       7.349       6.214       4.552       2.446      6.7479E-03
   7    9.999       9.790       9.504       9.055       8.369       7.508       6.256       4.562       2.448      6.7530E-03
   8    9.999       9.795       9.521       9.104       8.469       7.557       6.272       4.566       2.449      6.7555E-03
   9    9.999       9.796       9.525       9.116       8.490       7.569       6.277       4.567       2.449      6.7564E-03
  10    9.999       9.796       9.527       9.119       8.494       7.572       6.278       4.568       2.449      6.7567E-03
1
              HEAD IN LAYER   3 AT END OF TIME STEP  15 IN STRESS PERIOD    3
  ---------------------------------------------------------------------------

            1           2           3           4           5           6           7           8           9          10
 ........................................................................................................................
   1    9.999       9.793       9.519       9.106       8.476       7.552       6.259       4.550       2.436      7.2270E-03
   2    9.999       9.791       9.514       9.093       8.453       7.539       6.254       4.548       2.435      7.2260E-03
   3    9.999       9.787       9.496       9.040       8.347       7.487       6.236       4.543       2.434      7.2229E-03
   4    9.999       9.777       9.451       8.872       7.897       7.318       6.191       4.533       2.432      7.2169E-03
   5    9.999       9.765       9.386       8.527       6.254       6.967       6.125       4.521       2.430      7.2113E-03
   6    9.999       9.777       9.451       8.872       7.897       7.318       6.191       4.533       2.432      7.2169E-03
   7    9.999       9.787       9.496       9.040       8.348       7.487       6.236       4.543       2.434      7.2229E-03
   8    9.999       9.791       9.514       9.093       8.454       7.540       6.254       4.548       2.435      7.2260E-03
   9    9.999       9.793       9.519       9.106       8.477       7.553       6.259       4.550       2.436      7.2271E-03
  10    9.999       9.794       9.521       9.110       8.482       7.556       6.260       4.550       2.436      7.2275E-03
1
              HEAD IN LAYER   4 AT END OF TIME STEP  15 IN STRESS PERIOD    3
  ---------------------------------------------------------------------------

            1           2           3           4           5           6           7           8           9          10
 ........................................................................................................................
   1    9.999       9.791       9.516       9.101       8.469       7.544       6.250       4.541       2.429      7.2605E-03
   2    9.999       9.790       9.511       9.087       8.446       7.531       6.244       4.539       2.429      7.2594E-03
   3    9.999       9.785       9.492       9.032       8.337       7.476       6.226       4.534       2.427      7.2561E-03
   4    9.999       9.774       9.445       8.860       7.883       7.302       6.179       4.524       2.425      7.2497E-03
   5    9.999       9.763       9.379       8.515       6.384       6.952       6.111       4.511       2.423      7.2438E-03
   6    9.999       9.774       9.445       8.860       7.883       7.302       6.179       4.524       2.425      7.2497E-03
   7    9.999       9.785       9.492       9.032       8.337       7.476       6.226       4.534       2.427      7.2561E-03
   8    9.999       9.790       9.511       9.087       8.446       7.531       6.244       4.539       2.429      7.2594E-03
   9    9.999       9.792       9.516       9.102       8.470       7.545       6.250       4.541       2.429      7.2606E-03
  10    9.999       9.792       9.518       9.105       8.475       7.548       6.251       4.541       2.429      7.2610E-03

 HEAD WILL BE SAVED ON UNIT   51 AT END OF TIME STEP   15, STRESS PERIOD    3

 DRAWDOWN WILL BE SAVED ON UNIT   52 AT END OF TIME STEP   15, STRESS PERIOD    3
1
  VOLUMETRIC BUDGET FOR ENTIRE MODEL AT END OF TIME STEP   15, STRESS PERIOD   3
  ------------------------------------------------------------------------------

     CUMULATIVE VOLUMES      L**3       RATES FOR THIS TIME STEP      L**3/T
     ------------------                 ------------------------

           IN:                                      IN:
           ---                                      ---
             STORAGE =      342618.9688               STORAGE =        1614.2773
       CONSTANT HEAD =           0.0000         CONSTANT HEAD =           0.0000
               WELLS =           0.0000                 WELLS =           0.0000
     HEAD DEP BOUNDS =        4027.6589       HEAD DEP BOUNDS =         126.4570

            TOTAL IN =      346646.6250              TOTAL IN =        1740.7344

          OUT:                                     OUT:
          ----                                     ----
             STORAGE =           0.0000               STORAGE =           0.0000
       CONSTANT HEAD =           0.0000         CONSTANT HEAD =           0.0000
               WELLS =        7500.0000                 WELLS =         500.0000
     HEAD DEP BOUNDS =      339147.7812       HEAD DEP BOUNDS =        1240.7494

           TOTAL OUT =      346647.7812             TOTAL OUT =        1740.7494

            IN - OUT =          -1.1562              IN - OUT =      -1.5015E-02

 PERCENT DISCREPANCY =          -0.00     PERCENT DISCREPANCY =          -0.00






         TIME SUMMARY AT END OF TIME STEP   15 IN STRESS PERIOD    3
                    SECONDS     MINUTES      HOURS       DAYS        YEARS
                    -----------------------------------------------------------
   TIME STEP LENGTH  86400.      1440.0      24.000      1.0000     2.73785E-03
 STRESS PERIOD TIME 1.29600E+06  21600.      360.00      15.000     4.10678E-02
         TOTAL TIME 1.00224E+07 1.67040E+05  2784.0      116.00     0.31759    
1
 
 SOLVING FOR HEAD 

 OUTPUT CONTROL FOR STRESS PERIOD    3   TIME STEP   16
    SAVE HEAD FOR ALL LAYERS
    SAVE DRAWDOWN FOR ALL LAYERS
    SAVE BUDGET
    PRINT HEAD FOR ALL LAYERS
    PRINT BUDGET
 UBDSV1 SAVING "         STORAGE" ON UNIT  53 AT TIME STEP 16, STRESS PERIOD   3
 UBDSV2 SAVING "   CONSTANT HEAD" ON UNIT  53 AT TIME STEP 16, STRESS PERIOD   3
 UBDSV1 SAVING "FLOW RIGHT FACE " ON UNIT  53 AT TIME STEP 16, STRESS PERIOD   3
 UBDSV1 SAVING "FLOW FRONT FACE " ON UNIT  53 AT TIME STEP 16, STRESS PERIOD   3
 UBDSV1 SAVING "FLOW LOWER FACE " ON UNIT  53 AT TIME STEP 16, STRESS PERIOD   3
1
              HEAD IN LAYER   1 AT END OF TIME STEP  16 IN STRESS PERIOD    3
  ---------------------------------------------------------------------------

            1           2           3           4           5           6           7           8           9          10
 ........................................................................................................................
   1    9.999       9.796       9.526       9.117       8.491       7.571       6.280       4.571       2.454      3.5695E-03
   2    9.999       9.795       9.521       9.105       8.471       7.560       6.276       4.570       2.454      3.5690E-03
   3    9.999       9.791       9.505       9.057       8.372       7.511       6.260       4.566       2.453      3.5675E-03
   4    9.999       9.782       9.464       8.899       7.926       7.352       6.217       4.556       2.451      3.5645E-03
   5    9.999       9.771       9.403       8.555       5.512       6.996       6.154       4.545       2.449      3.5615E-03
   6    9.999       9.782       9.464       8.899       7.926       7.352       6.217       4.556       2.451      3.5645E-03
   7    9.999       9.791       9.505       9.057       8.372       7.511       6.260       4.566       2.453      3.5675E-03
   8    9.999       9.795       9.522       9.105       8.471       7.560       6.276       4.570       2.454      3.5690E-03
   9    9.999       9.796       9.526       9.118       8.492       7.572       6.280       4.571       2.454      3.5695E-03
  10    9.999       9.797       9.528       9.120       8.497       7.575       6.281       4.572       2.454      3.5698E-03
1
              HEAD IN LAYER   2 AT END OF TIME STEP  16 IN STRESS PERIOD    3
  ---------------------------------------------------------------------------

            1           2           3           4           5           6           7           8           9          10
 ........................................................................................................................
   1    9.999       9.792       9.517       9.103       8.472       7.549       6.256       4.550       2.439      6.7274E-03
   2    9.999       9.790       9.512       9.089       8.449       7.535       6.251       4.548       2.438      6.7264E-03
   3    9.999       9.785       9.493       9.035       8.341       7.481       6.233       4.543       2.437      6.7234E-03
   4    9.999       9.775       9.446       8.864       7.877       7.309       6.186       4.533       2.435      6.7174E-03
   5    9.999       9.763       9.381       8.508       5.896       6.946       6.119       4.521       2.433      6.7119E-03
   6    9.999       9.775       9.446       8.864       7.877       7.309       6.186       4.533       2.435      6.7174E-03
   7    9.999       9.785       9.493       9.035       8.341       7.481       6.233       4.543       2.437      6.7234E-03
   8    9.999       9.790       9.512       9.089       8.449       7.536       6.251       4.548       2.438      6.7264E-03
   9    9.999       9.792       9.517       9.103       8.473       7.550       6.257       4.550       2.439      6.7276E-03
  10    9.999       9.793       9.519       9.107       8.478       7.553       6.258       4.550       2.439      6.7279E-03
1
              HEAD IN LAYER   3 AT END OF TIME STEP  16 IN STRESS PERIOD    3
  ---------------------------------------------------------------------------

            1           2           3           4           5           6           7           8           9          10
 ........................................................................................................................
   1    9.999       9.789       9.511       9.093       8.459       7.533       6.239       4.532       2.425      7.1965E-03
   2    9.999       9.787       9.505       9.078       8.434       7.518       6.233       4.531       2.425      7.1953E-03
   3    9.999       9.782       9.485       9.020       8.319       7.460       6.213       4.525       2.424      7.1916E-03
   4    9.999       9.770       9.435       8.840       7.847       7.278       6.163       4.514       2.421      7.1846E-03
   5    9.999       9.758       9.366       8.482       6.174       6.914       6.092       4.501       2.419      7.1782E-03
   6    9.999       9.770       9.435       8.840       7.847       7.278       6.163       4.514       2.421      7.1846E-03
   7    9.999       9.782       9.485       9.020       8.319       7.460       6.213       4.525       2.424      7.1916E-03
   8    9.999       9.787       9.505       9.078       8.434       7.518       6.233       4.531       2.425      7.1953E-03
   9    9.999       9.789       9.511       9.094       8.460       7.534       6.239       4.533       2.425      7.1967E-03
  10    9.999       9.790       9.513       9.097       8.465       7.537       6.241       4.533       2.426      7.1971E-03
1
              HEAD IN LAYER   4 AT END OF TIME STEP  16 IN STRESS PERIOD    3
  ---------------------------------------------------------------------------

            1           2           3           4           5           6           7           8           9          10
 ........................................................................................................................
   1    9.999       9.787       9.508       9.088       8.452       7.524       6.230       4.524       2.419      7.2300E-03
   2    9.999       9.786       9.501       9.072       8.426       7.509       6.224       4.522       2.418      7.2287E-03
   3    9.999       9.780       9.480       9.012       8.308       7.449       6.203       4.516       2.417      7.2248E-03
   4    9.999       9.768       9.429       8.828       7.834       7.263       6.151       4.504       2.414      7.2174E-03
   5    9.999       9.755       9.358       8.470       6.307       6.900       6.079       4.491       2.412      7.2107E-03
   6    9.999       9.768       9.429       8.828       7.834       7.263       6.151       4.504       2.414      7.2174E-03
   7    9.999       9.780       9.480       9.012       8.308       7.449       6.203       4.516       2.417      7.2248E-03
   8    9.999       9.786       9.502       9.073       8.426       7.509       6.224       4.522       2.418      7.2287E-03
   9    9.999       9.788       9.508       9.089       8.453       7.525       6.230       4.524       2.419      7.2302E-03
  10    9.999       9.788       9.510       9.093       8.459       7.529       6.232       4.525       2.419      7.2306E-03

 HEAD WILL BE SAVED ON UNIT   51 AT END OF TIME STEP   16, STRESS PERIOD    3

 DRAWDOWN WILL BE SAVED ON UNIT   52 AT END OF TIME STEP   16, STRESS PERIOD    3
1
  VOLUMETRIC BUDGET FOR ENTIRE MODEL AT END OF TIME STEP   16, STRESS PERIOD   3
  ------------------------------------------------------------------------------

     CUMULATIVE VOLUMES      L**3       RATES FOR THIS TIME STEP      L**3/T
     ------------------                 ------------------------

           IN:                                      IN:
           ---                                      ---
             STORAGE =      344224.8438               STORAGE =        1605.8674
       CONSTANT HEAD =           0.0000         CONSTANT HEAD =           0.0000
               WELLS =           0.0000                 WELLS =           0.0000
     HEAD DEP BOUNDS =        4157.0630       HEAD DEP BOUNDS =         129.4042

            TOTAL IN =      348381.9062              TOTAL IN =        1735.2716

          OUT:                                     OUT:
          ----                                     ----
             STORAGE =           0.0000               STORAGE =           0.0000
       CONSTANT HEAD =           0.0000         CONSTANT HEAD =           0.0000
               WELLS =        8000.0000                 WELLS =         500.0000
     HEAD DEP BOUNDS =      340383.0625       HEAD DEP BOUNDS =        1235.2832

           TOTAL OUT =      348383.0625             TOTAL OUT =        1735.2832

            IN - OUT =          -1.1562              IN - OUT =      -1.1597E-02

 PERCENT DISCREPANCY =          -0.00     PERCENT DISCREPANCY =          -0.00






         TIME SUMMARY AT END OF TIME STEP   16 IN STRESS PERIOD    3
                    SECONDS     MINUTES      HOURS       DAYS        YEARS
                    -----------------------------------------------------------
   TIME STEP LENGTH  86400.      1440.0      24.000      1.0000     2.73785E-03
 STRESS PERIOD TIME 1.38240E+06  23040.      384.00      16.000     4.38056E-02
         TOTAL TIME 1.01088E+07 1.68480E+05  2808.0      117.00     0.32033    
1
 
 SOLVING FOR HEAD 

 OUTPUT CONTROL FOR STRESS PERIOD    3   TIME STEP   17
    SAVE HEAD FOR ALL LAYERS
    SAVE DRAWDOWN FOR ALL LAYERS
    SAVE BUDGET
    PRINT HEAD FOR ALL LAYERS
    PRINT BUDGET
 UBDSV1 SAVING "         STORAGE" ON UNIT  53 AT TIME STEP 17, STRESS PERIOD   3
 UBDSV2 SAVING "   CONSTANT HEAD" ON UNIT  53 AT TIME STEP 17, STRESS PERIOD   3
 UBDSV1 SAVING "FLOW RIGHT FACE " ON UNIT  53 AT TIME STEP 17, STRESS PERIOD   3
 UBDSV1 SAVING "FLOW FRONT FACE " ON UNIT  53 AT TIME STEP 17, STRESS PERIOD   3
 UBDSV1 SAVING "FLOW LOWER FACE " ON UNIT  53 AT TIME STEP 17, STRESS PERIOD   3
1
              HEAD IN LAYER   1 AT END OF TIME STEP  17 IN STRESS PERIOD    3
  ---------------------------------------------------------------------------

            1           2           3           4           5           6           7           8           9          10
 ........................................................................................................................
   1    9.999       9.792       9.518       9.104       8.474       7.552       6.260       4.554       2.444      3.5529E-03
   2    9.999       9.791       9.513       9.091       8.451       7.538       6.255       4.552       2.443      3.5522E-03
   3    9.999       9.786       9.494       9.037       8.344       7.484       6.236       4.547       2.442      3.5505E-03
   4    9.999       9.775       9.448       8.867       7.875       7.312       6.189       4.536       2.440      3.5470E-03
   5    9.999       9.764       9.383       8.509       5.428       6.942       6.122       4.524       2.438      3.5437E-03
   6    9.999       9.776       9.448       8.867       7.875       7.312       6.189       4.536       2.440      3.5470E-03
   7    9.999       9.786       9.494       9.037       8.344       7.484       6.236       4.547       2.442      3.5505E-03
   8    9.999       9.791       9.513       9.091       8.451       7.538       6.255       4.552       2.443      3.5522E-03
   9    9.999       9.793       9.518       9.105       8.475       7.552       6.260       4.554       2.444      3.5530E-03
  10    9.999       9.793       9.520       9.108       8.480       7.556       6.262       4.555       2.444      3.5532E-03
1
              HEAD IN LAYER   2 AT END OF TIME STEP  17 IN STRESS PERIOD    3
  ---------------------------------------------------------------------------

            1           2           3           4           5           6           7           8           9          10
 ........................................................................................................................
   1    9.999       9.788       9.509       9.090       8.455       7.529       6.236       4.533       2.429      6.6989E-03
   2    9.999       9.786       9.502       9.074       8.429       7.514       6.230       4.531       2.428      6.6976E-03
   3    9.999       9.780       9.482       9.015       8.312       7.454       6.210       4.525       2.427      6.6940E-03
   4    9.999       9.769       9.430       8.832       7.827       7.270       6.158       4.513       2.424      6.6871E-03
   5    9.999       9.756       9.361       8.463       5.816       6.893       6.087       4.500       2.422      6.6809E-03
   6    9.999       9.769       9.430       8.832       7.827       7.270       6.158       4.513       2.424      6.6871E-03
   7    9.999       9.780       9.482       9.015       8.312       7.454       6.210       4.525       2.427      6.6940E-03
   8    9.999       9.786       9.503       9.075       8.430       7.514       6.231       4.531       2.428      6.6976E-03
   9    9.999       9.788       9.509       9.091       8.456       7.530       6.237       4.533       2.429      6.6991E-03
  10    9.999       9.789       9.511       9.095       8.462       7.534       6.239       4.533       2.429      6.6995E-03
1
              HEAD IN LAYER   3 AT END OF TIME STEP  17 IN STRESS PERIOD    3
  ---------------------------------------------------------------------------

            1           2           3           4           5           6           7           8           9          10
 ........................................................................................................................
   1    9.999       9.785       9.502       9.080       8.441       7.513       6.219       4.516       2.415      7.1664E-03
   2    9.999       9.783       9.496       9.063       8.414       7.496       6.212       4.514       2.415      7.1649E-03
   3    9.999       9.777       9.473       8.999       8.290       7.432       6.190       4.507       2.413      7.1606E-03
   4    9.999       9.764       9.418       8.808       7.799       7.239       6.135       4.494       2.411      7.1525E-03
   5    9.999       9.750       9.346       8.438       6.099       6.862       6.060       4.480       2.408      7.1453E-03
   6    9.999       9.764       9.418       8.808       7.799       7.239       6.135       4.494       2.411      7.1525E-03
   7    9.999       9.777       9.473       8.999       8.290       7.432       6.190       4.507       2.413      7.1606E-03
   8    9.999       9.783       9.496       9.063       8.414       7.496       6.212       4.514       2.415      7.1649E-03
   9    9.999       9.785       9.503       9.081       8.443       7.514       6.219       4.516       2.415      7.1666E-03
  10    9.999       9.786       9.505       9.085       8.449       7.518       6.221       4.516       2.415      7.1671E-03
1
              HEAD IN LAYER   4 AT END OF TIME STEP  17 IN STRESS PERIOD    3
  ---------------------------------------------------------------------------

            1           2           3           4           5           6           7           8           9          10
 ........................................................................................................................
   1    9.999       9.783       9.499       9.075       8.435       7.505       6.210       4.507       2.409      7.1999E-03
   2    9.999       9.781       9.492       9.057       8.406       7.487       6.203       4.505       2.408      7.1983E-03
   3    9.999       9.775       9.469       8.991       8.280       7.421       6.180       4.498       2.407      7.1937E-03
   4    9.999       9.761       9.412       8.796       7.786       7.224       6.123       4.484       2.404      7.1852E-03
   5    9.999       9.748       9.338       8.426       6.234       6.848       6.047       4.470       2.401      7.1777E-03
   6    9.999       9.761       9.412       8.796       7.786       7.224       6.123       4.484       2.404      7.1852E-03
   7    9.999       9.775       9.469       8.991       8.280       7.421       6.180       4.498       2.407      7.1937E-03
   8    9.999       9.781       9.492       9.058       8.406       7.488       6.203       4.505       2.408      7.1983E-03
   9    9.999       9.784       9.500       9.076       8.436       7.506       6.210       4.507       2.409      7.2001E-03
  10    9.999       9.784       9.502       9.080       8.443       7.510       6.212       4.508       2.409      7.2007E-03

 HEAD WILL BE SAVED ON UNIT   51 AT END OF TIME STEP   17, STRESS PERIOD    3

 DRAWDOWN WILL BE SAVED ON UNIT   52 AT END OF TIME STEP   17, STRESS PERIOD    3
1
  VOLUMETRIC BUDGET FOR ENTIRE MODEL AT END OF TIME STEP   17, STRESS PERIOD   3
  ------------------------------------------------------------------------------

     CUMULATIVE VOLUMES      L**3       RATES FOR THIS TIME STEP      L**3/T
     ------------------                 ------------------------

           IN:                                      IN:
           ---                                      ---
             STORAGE =      345822.2812               STORAGE =        1597.4305
       CONSTANT HEAD =           0.0000         CONSTANT HEAD =           0.0000
               WELLS =           0.0000                 WELLS =           0.0000
     HEAD DEP BOUNDS =        4289.4604       HEAD DEP BOUNDS =         132.3974

            TOTAL IN =      350111.7500              TOTAL IN =        1729.8279

          OUT:                                     OUT:
          ----                                     ----
             STORAGE =           0.0000               STORAGE =           0.0000
       CONSTANT HEAD =           0.0000         CONSTANT HEAD =           0.0000
               WELLS =        8500.0000                 WELLS =         500.0000
     HEAD DEP BOUNDS =      341612.9375       HEAD DEP BOUNDS =        1229.8623

           TOTAL OUT =      350112.9375             TOTAL OUT =        1729.8623

            IN - OUT =          -1.1875              IN - OUT =      -3.4424E-02

 PERCENT DISCREPANCY =          -0.00     PERCENT DISCREPANCY =          -0.00






         TIME SUMMARY AT END OF TIME STEP   17 IN STRESS PERIOD    3
                    SECONDS     MINUTES      HOURS       DAYS        YEARS
                    -----------------------------------------------------------
   TIME STEP LENGTH  86400.      1440.0      24.000      1.0000     2.73785E-03
 STRESS PERIOD TIME 1.46880E+06  24480.      408.00      17.000     4.65435E-02
         TOTAL TIME 1.01952E+07 1.69920E+05  2832.0      118.00     0.32307    
1
 
 SOLVING FOR HEAD 

 OUTPUT CONTROL FOR STRESS PERIOD    3   TIME STEP   18
    SAVE HEAD FOR ALL LAYERS
    SAVE DRAWDOWN FOR ALL LAYERS
    SAVE BUDGET
    PRINT HEAD FOR ALL LAYERS
    PRINT BUDGET
 UBDSV1 SAVING "         STORAGE" ON UNIT  53 AT TIME STEP 18, STRESS PERIOD   3
 UBDSV2 SAVING "   CONSTANT HEAD" ON UNIT  53 AT TIME STEP 18, STRESS PERIOD   3
 UBDSV1 SAVING "FLOW RIGHT FACE " ON UNIT  53 AT TIME STEP 18, STRESS PERIOD   3
 UBDSV1 SAVING "FLOW FRONT FACE " ON UNIT  53 AT TIME STEP 18, STRESS PERIOD   3
 UBDSV1 SAVING "FLOW LOWER FACE " ON UNIT  53 AT TIME STEP 18, STRESS PERIOD   3
1
              HEAD IN LAYER   1 AT END OF TIME STEP  18 IN STRESS PERIOD    3
  ---------------------------------------------------------------------------

            1           2           3           4           5           6           7           8           9          10
 ........................................................................................................................
   1    9.999       9.788       9.510       9.091       8.457       7.532       6.240       4.537       2.433      3.5367E-03
   2    9.999       9.787       9.503       9.076       8.431       7.517       6.234       4.535       2.433      3.5359E-03
   3    9.999       9.781       9.483       9.017       8.315       7.457       6.213       4.529       2.432      3.5337E-03
   4    9.999       9.769       9.432       8.835       7.826       7.273       6.162       4.517       2.429      3.5296E-03
   5    9.999       9.757       9.363       8.464       5.348       6.889       6.090       4.504       2.427      3.5260E-03
   6    9.999       9.769       9.432       8.835       7.826       7.273       6.162       4.517       2.429      3.5296E-03
   7    9.999       9.781       9.483       9.017       8.315       7.457       6.213       4.529       2.432      3.5337E-03
   8    9.999       9.787       9.504       9.076       8.432       7.517       6.234       4.535       2.433      3.5359E-03
   9    9.999       9.789       9.510       9.092       8.458       7.533       6.240       4.537       2.433      3.5368E-03
  10    9.999       9.789       9.512       9.096       8.464       7.537       6.242       4.538       2.434      3.5370E-03
1
              HEAD IN LAYER   2 AT END OF TIME STEP  18 IN STRESS PERIOD    3
  ---------------------------------------------------------------------------

            1           2           3           4           5           6           7           8           9          10
 ........................................................................................................................
   1    9.999       9.784       9.500       9.077       8.438       7.509       6.217       4.516       2.418      6.6707E-03
   2    9.999       9.782       9.493       9.059       8.409       7.492       6.210       4.514       2.418      6.6692E-03
   3    9.999       9.775       9.470       8.994       8.284       7.427       6.187       4.507       2.416      6.6649E-03
   4    9.999       9.762       9.414       8.800       7.779       7.230       6.130       4.494       2.413      6.6570E-03
   5    9.999       9.748       9.340       8.420       5.741       6.841       6.055       4.479       2.411      6.6501E-03
   6    9.999       9.762       9.414       8.800       7.779       7.230       6.130       4.494       2.413      6.6570E-03
   7    9.999       9.775       9.470       8.994       8.284       7.427       6.187       4.507       2.416      6.6649E-03
   8    9.999       9.782       9.493       9.060       8.410       7.492       6.210       4.514       2.418      6.6692E-03
   9    9.999       9.784       9.501       9.078       8.439       7.511       6.217       4.516       2.418      6.6709E-03
  10    9.999       9.785       9.503       9.082       8.446       7.515       6.219       4.517       2.419      6.6714E-03
1
              HEAD IN LAYER   3 AT END OF TIME STEP  18 IN STRESS PERIOD    3
  ---------------------------------------------------------------------------

            1           2           3           4           5           6           7           8           9          10
 ........................................................................................................................
   1    9.999       9.781       9.494       9.067       8.424       7.493       6.199       4.499       2.405      7.1367E-03
   2    9.999       9.779       9.486       9.048       8.394       7.474       6.191       4.496       2.405      7.1348E-03
   3    9.999       9.772       9.461       8.978       8.262       7.405       6.166       4.489       2.403      7.1298E-03
   4    9.999       9.757       9.402       8.776       7.751       7.200       6.107       4.474       2.400      7.1206E-03
   5    9.999       9.743       9.325       8.395       6.028       6.811       6.028       4.459       2.397      7.1126E-03
   6    9.999       9.757       9.402       8.776       7.751       7.200       6.107       4.474       2.400      7.1206E-03
   7    9.999       9.772       9.461       8.979       8.262       7.405       6.166       4.489       2.403      7.1298E-03
   8    9.999       9.779       9.486       9.048       8.394       7.475       6.191       4.496       2.405      7.1349E-03
   9    9.999       9.781       9.495       9.068       8.426       7.494       6.200       4.499       2.405      7.1369E-03
  10    9.999       9.782       9.497       9.073       8.433       7.499       6.202       4.500       2.406      7.1375E-03
1
              HEAD IN LAYER   4 AT END OF TIME STEP  18 IN STRESS PERIOD    3
  ---------------------------------------------------------------------------

            1           2           3           4           5           6           7           8           9          10
 ........................................................................................................................
   1    9.999       9.779       9.491       9.062       8.417       7.485       6.190       4.490       2.399      7.1702E-03
   2    9.999       9.777       9.483       9.042       8.386       7.466       6.182       4.488       2.398      7.1682E-03
   3    9.999       9.770       9.457       8.971       8.251       7.394       6.156       4.480       2.396      7.1629E-03
   4    9.999       9.755       9.396       8.764       7.739       7.185       6.095       4.465       2.393      7.1532E-03
   5    9.999       9.740       9.318       8.384       6.164       6.798       6.015       4.449       2.390      7.1449E-03
   6    9.999       9.755       9.396       8.764       7.739       7.185       6.095       4.465       2.393      7.1532E-03
   7    9.999       9.770       9.457       8.971       8.251       7.394       6.156       4.480       2.396      7.1629E-03
   8    9.999       9.777       9.483       9.043       8.386       7.466       6.182       4.488       2.398      7.1683E-03
   9    9.999       9.780       9.492       9.063       8.419       7.486       6.191       4.491       2.399      7.1704E-03
  10    9.999       9.781       9.494       9.068       8.427       7.491       6.193       4.491       2.399      7.1711E-03

 HEAD WILL BE SAVED ON UNIT   51 AT END OF TIME STEP   18, STRESS PERIOD    3

 DRAWDOWN WILL BE SAVED ON UNIT   52 AT END OF TIME STEP   18, STRESS PERIOD    3
1
  VOLUMETRIC BUDGET FOR ENTIRE MODEL AT END OF TIME STEP   18, STRESS PERIOD   3
  ------------------------------------------------------------------------------

     CUMULATIVE VOLUMES      L**3       RATES FOR THIS TIME STEP      L**3/T
     ------------------                 ------------------------

           IN:                                      IN:
           ---                                      ---
             STORAGE =      347411.3125               STORAGE =        1589.0195
       CONSTANT HEAD =           0.0000         CONSTANT HEAD =           0.0000
               WELLS =           0.0000                 WELLS =           0.0000
     HEAD DEP BOUNDS =        4424.9292       HEAD DEP BOUNDS =         135.4687

            TOTAL IN =      351836.2500              TOTAL IN =        1724.4883

          OUT:                                     OUT:
          ----                                     ----
             STORAGE =           0.0000               STORAGE =           0.0000
       CONSTANT HEAD =           0.0000         CONSTANT HEAD =           0.0000
               WELLS =        9000.0000                 WELLS =         500.0000
     HEAD DEP BOUNDS =      342837.4375       HEAD DEP BOUNDS =        1224.4960

           TOTAL OUT =      351837.4375             TOTAL OUT =        1724.4960

            IN - OUT =          -1.1875              IN - OUT =      -7.6904E-03

 PERCENT DISCREPANCY =          -0.00     PERCENT DISCREPANCY =          -0.00






         TIME SUMMARY AT END OF TIME STEP   18 IN STRESS PERIOD    3
                    SECONDS     MINUTES      HOURS       DAYS        YEARS
                    -----------------------------------------------------------
   TIME STEP LENGTH  86400.      1440.0      24.000      1.0000     2.73785E-03
 STRESS PERIOD TIME 1.55520E+06  25920.      432.00      18.000     4.92813E-02
         TOTAL TIME 1.02816E+07 1.71360E+05  2856.0      119.00     0.32580    
1
 
 SOLVING FOR HEAD 

 OUTPUT CONTROL FOR STRESS PERIOD    3   TIME STEP   19
    SAVE HEAD FOR ALL LAYERS
    SAVE DRAWDOWN FOR ALL LAYERS
    SAVE BUDGET
    PRINT HEAD FOR ALL LAYERS
    PRINT BUDGET
 UBDSV1 SAVING "         STORAGE" ON UNIT  53 AT TIME STEP 19, STRESS PERIOD   3
 UBDSV2 SAVING "   CONSTANT HEAD" ON UNIT  53 AT TIME STEP 19, STRESS PERIOD   3
 UBDSV1 SAVING "FLOW RIGHT FACE " ON UNIT  53 AT TIME STEP 19, STRESS PERIOD   3
 UBDSV1 SAVING "FLOW FRONT FACE " ON UNIT  53 AT TIME STEP 19, STRESS PERIOD   3
 UBDSV1 SAVING "FLOW LOWER FACE " ON UNIT  53 AT TIME STEP 19, STRESS PERIOD   3
1
              HEAD IN LAYER   1 AT END OF TIME STEP  19 IN STRESS PERIOD    3
  ---------------------------------------------------------------------------

            1           2           3           4           5           6           7           8           9          10
 ........................................................................................................................
   1    9.999       9.784       9.501       9.078       8.440       7.512       6.220       4.520       2.423      3.5205E-03
   2    9.999       9.782       9.494       9.061       8.412       7.495       6.213       4.518       2.423      3.5196E-03
   3    9.999       9.776       9.471       8.996       8.287       7.430       6.190       4.511       2.421      3.5169E-03
   4    9.999       9.763       9.416       8.803       7.778       7.234       6.134       4.497       2.418      3.5123E-03
   5    9.999       9.749       9.343       8.420       5.273       6.838       6.057       4.483       2.416      3.5082E-03
   6    9.999       9.763       9.416       8.803       7.778       7.234       6.134       4.497       2.418      3.5123E-03
   7    9.999       9.776       9.471       8.996       8.287       7.430       6.190       4.511       2.421      3.5169E-03
   8    9.999       9.782       9.494       9.061       8.412       7.495       6.213       4.518       2.423      3.5196E-03
   9    9.999       9.785       9.502       9.079       8.441       7.513       6.220       4.520       2.423      3.5206E-03
  10    9.999       9.785       9.504       9.084       8.448       7.518       6.222       4.521       2.423      3.5209E-03
1
              HEAD IN LAYER   2 AT END OF TIME STEP  19 IN STRESS PERIOD    3
  ---------------------------------------------------------------------------

            1           2           3           4           5           6           7           8           9          10
 ........................................................................................................................
   1    9.999       9.780       9.492       9.064       8.420       7.490       6.197       4.499       2.408      6.6428E-03
   2    9.999       9.777       9.484       9.044       8.389       7.471       6.189       4.497       2.408      6.6410E-03
   3    9.999       9.770       9.458       8.973       8.255       7.399       6.163       4.489       2.406      6.6360E-03
   4    9.999       9.755       9.398       8.768       7.732       7.192       6.102       4.474       2.403      6.6270E-03
   5    9.999       9.741       9.320       8.377       5.670       6.791       6.023       4.459       2.400      6.6193E-03
   6    9.999       9.755       9.398       8.768       7.732       7.192       6.102       4.474       2.403      6.6270E-03
   7    9.999       9.770       9.458       8.974       8.255       7.400       6.163       4.489       2.406      6.6360E-03
   8    9.999       9.777       9.484       9.045       8.390       7.471       6.189       4.497       2.408      6.6410E-03
   9    9.999       9.780       9.493       9.065       8.422       7.491       6.197       4.499       2.408      6.6430E-03
  10    9.999       9.781       9.495       9.070       8.430       7.496       6.200       4.500       2.409      6.6436E-03
1
              HEAD IN LAYER   3 AT END OF TIME STEP  19 IN STRESS PERIOD    3
  ---------------------------------------------------------------------------

            1           2           3           4           5           6           7           8           9          10
 ........................................................................................................................
   1    9.999       9.777       9.486       9.054       8.407       7.473       6.179       4.482       2.395      7.1072E-03
   2    9.999       9.774       9.477       9.033       8.374       7.453       6.171       4.479       2.395      7.1051E-03
   3    9.999       9.766       9.449       8.958       8.233       7.377       6.143       4.471       2.393      7.0992E-03
   4    9.999       9.751       9.385       8.744       7.705       7.161       6.078       4.455       2.389      7.0888E-03
   5    9.999       9.735       9.305       8.353       5.960       6.762       5.996       4.439       2.386      7.0800E-03
   6    9.999       9.751       9.385       8.744       7.705       7.161       6.078       4.455       2.389      7.0888E-03
   7    9.999       9.766       9.449       8.958       8.233       7.377       6.143       4.471       2.393      7.0993E-03
   8    9.999       9.774       9.477       9.033       8.374       7.453       6.171       4.479       2.395      7.1051E-03
   9    9.999       9.777       9.486       9.055       8.409       7.475       6.180       4.483       2.395      7.1075E-03
  10    9.999       9.778       9.489       9.061       8.417       7.480       6.182       4.483       2.396      7.1082E-03
1
              HEAD IN LAYER   4 AT END OF TIME STEP  19 IN STRESS PERIOD    3
  ---------------------------------------------------------------------------

            1           2           3           4           5           6           7           8           9          10
 ........................................................................................................................
   1    9.999       9.775       9.482       9.049       8.400       7.465       6.170       4.474       2.389      7.1407E-03
   2    9.999       9.772       9.473       9.027       8.366       7.444       6.161       4.471       2.388      7.1384E-03
   3    9.999       9.764       9.445       8.950       8.222       7.366       6.133       4.462       2.386      7.1323E-03
   4    9.999       9.748       9.379       8.732       7.693       7.146       6.066       4.445       2.382      7.1213E-03
   5    9.999       9.732       9.297       8.342       6.098       6.749       5.983       4.429       2.379      7.1121E-03
   6    9.999       9.748       9.379       8.732       7.693       7.146       6.066       4.445       2.382      7.1213E-03
   7    9.999       9.764       9.445       8.950       8.223       7.366       6.133       4.462       2.386      7.1323E-03
   8    9.999       9.773       9.474       9.028       8.366       7.444       6.162       4.471       2.388      7.1385E-03
   9    9.999       9.776       9.483       9.050       8.402       7.467       6.171       4.474       2.389      7.1410E-03
  10    9.999       9.777       9.486       9.056       8.410       7.473       6.174       4.475       2.389      7.1418E-03

 HEAD WILL BE SAVED ON UNIT   51 AT END OF TIME STEP   19, STRESS PERIOD    3

 DRAWDOWN WILL BE SAVED ON UNIT   52 AT END OF TIME STEP   19, STRESS PERIOD    3
1
  VOLUMETRIC BUDGET FOR ENTIRE MODEL AT END OF TIME STEP   19, STRESS PERIOD   3
  ------------------------------------------------------------------------------

     CUMULATIVE VOLUMES      L**3       RATES FOR THIS TIME STEP      L**3/T
     ------------------                 ------------------------

           IN:                                      IN:
           ---                                      ---
             STORAGE =      348991.8750               STORAGE =        1580.5670
       CONSTANT HEAD =           0.0000         CONSTANT HEAD =           0.0000
               WELLS =           0.0000                 WELLS =           0.0000
     HEAD DEP BOUNDS =        4563.5117       HEAD DEP BOUNDS =         138.5825

            TOTAL IN =      353555.3750              TOTAL IN =        1719.1495

          OUT:                                     OUT:
          ----                                     ----
             STORAGE =           0.0000               STORAGE =           0.0000
       CONSTANT HEAD =           0.0000         CONSTANT HEAD =           0.0000
               WELLS =        9500.0000                 WELLS =         500.0000
     HEAD DEP BOUNDS =      344056.5938       HEAD DEP BOUNDS =        1219.1663

           TOTAL OUT =      353556.5938             TOTAL OUT =        1719.1663

            IN - OUT =          -1.2188              IN - OUT =      -1.6724E-02

 PERCENT DISCREPANCY =          -0.00     PERCENT DISCREPANCY =          -0.00






         TIME SUMMARY AT END OF TIME STEP   19 IN STRESS PERIOD    3
                    SECONDS     MINUTES      HOURS       DAYS        YEARS
                    -----------------------------------------------------------
   TIME STEP LENGTH  86400.      1440.0      24.000      1.0000     2.73785E-03
 STRESS PERIOD TIME 1.64160E+06  27360.      456.00      19.000     5.20192E-02
         TOTAL TIME 1.03680E+07 1.72800E+05  2880.0      120.00     0.32854    
1
 
 SOLVING FOR HEAD 

 OUTPUT CONTROL FOR STRESS PERIOD    3   TIME STEP   20
    SAVE HEAD FOR ALL LAYERS
    SAVE DRAWDOWN FOR ALL LAYERS
    SAVE BUDGET
    PRINT HEAD FOR ALL LAYERS
    PRINT BUDGET
 UBDSV1 SAVING "         STORAGE" ON UNIT  53 AT TIME STEP 20, STRESS PERIOD   3
 UBDSV2 SAVING "   CONSTANT HEAD" ON UNIT  53 AT TIME STEP 20, STRESS PERIOD   3
 UBDSV1 SAVING "FLOW RIGHT FACE " ON UNIT  53 AT TIME STEP 20, STRESS PERIOD   3
 UBDSV1 SAVING "FLOW FRONT FACE " ON UNIT  53 AT TIME STEP 20, STRESS PERIOD   3
 UBDSV1 SAVING "FLOW LOWER FACE " ON UNIT  53 AT TIME STEP 20, STRESS PERIOD   3
1
              HEAD IN LAYER   1 AT END OF TIME STEP  20 IN STRESS PERIOD    3
  ---------------------------------------------------------------------------

            1           2           3           4           5           6           7           8           9          10
 ........................................................................................................................
   1    9.999       9.780       9.493       9.065       8.422       7.492       6.200       4.503       2.413      3.5045E-03
   2    9.999       9.778       9.485       9.046       8.392       7.473       6.192       4.501       2.412      3.5034E-03
   3    9.999       9.771       9.459       8.976       8.258       7.402       6.166       4.493       2.411      3.5005E-03
   4    9.999       9.756       9.399       8.771       7.731       7.195       6.105       4.478       2.407      3.4952E-03
   5    9.999       9.742       9.323       8.377       5.202       6.787       6.025       4.462       2.404      3.4907E-03
   6    9.999       9.756       9.399       8.771       7.731       7.195       6.105       4.478       2.407      3.4952E-03
   7    9.999       9.771       9.459       8.976       8.258       7.402       6.166       4.493       2.411      3.5005E-03
   8    9.999       9.778       9.485       9.046       8.392       7.474       6.192       4.501       2.412      3.5034E-03
   9    9.999       9.781       9.494       9.067       8.425       7.494       6.201       4.503       2.413      3.5046E-03
  10    9.999       9.781       9.496       9.072       8.432       7.499       6.203       4.504       2.413      3.5049E-03
1
              HEAD IN LAYER   2 AT END OF TIME STEP  20 IN STRESS PERIOD    3
  ---------------------------------------------------------------------------

            1           2           3           4           5           6           7           8           9          10
 ........................................................................................................................
   1    9.999       9.776       9.483       9.050       8.403       7.470       6.177       4.482       2.398      6.6152E-03
   2    9.999       9.773       9.474       9.029       8.369       7.449       6.168       4.480       2.398      6.6130E-03
   3    9.999       9.765       9.446       8.953       8.227       7.372       6.140       4.471       2.396      6.6074E-03
   4    9.999       9.749       9.381       8.736       7.686       7.153       6.074       4.454       2.392      6.5972E-03
   5    9.999       9.733       9.300       8.335       5.602       6.742       5.991       4.438       2.389      6.5887E-03
   6    9.999       9.749       9.381       8.736       7.686       7.153       6.074       4.454       2.392      6.5972E-03
   7    9.999       9.765       9.446       8.953       8.227       7.372       6.140       4.471       2.396      6.6074E-03
   8    9.999       9.773       9.475       9.030       8.370       7.449       6.168       4.480       2.398      6.6131E-03
   9    9.999       9.776       9.484       9.052       8.405       7.472       6.178       4.483       2.399      6.6155E-03
  10    9.999       9.777       9.487       9.058       8.414       7.477       6.180       4.484       2.399      6.6162E-03
1
              HEAD IN LAYER   3 AT END OF TIME STEP  20 IN STRESS PERIOD    3
  ---------------------------------------------------------------------------

            1           2           3           4           5           6           7           8           9          10
 ........................................................................................................................
   1    9.999       9.773       9.477       9.040       8.389       7.454       6.160       4.466       2.386      7.0781E-03
   2    9.999       9.770       9.467       9.018       8.353       7.431       6.150       4.463       2.385      7.0756E-03
   3    9.999       9.761       9.437       8.937       8.205       7.350       6.120       4.453       2.382      7.0689E-03
   4    9.999       9.744       9.368       8.712       7.660       7.123       6.050       4.435       2.378      7.0572E-03
   5    9.999       9.727       9.285       8.312       5.895       6.713       5.964       4.418       2.375      7.0475E-03
   6    9.999       9.744       9.368       8.712       7.660       7.123       6.050       4.435       2.378      7.0572E-03
   7    9.999       9.761       9.437       8.937       8.205       7.350       6.120       4.453       2.382      7.0689E-03
   8    9.999       9.770       9.467       9.018       8.354       7.431       6.150       4.463       2.385      7.0757E-03
   9    9.999       9.773       9.478       9.042       8.392       7.456       6.160       4.466       2.386      7.0784E-03
  10    9.999       9.774       9.481       9.048       8.401       7.462       6.163       4.467       2.386      7.0793E-03
1
              HEAD IN LAYER   4 AT END OF TIME STEP  20 IN STRESS PERIOD    3
  ---------------------------------------------------------------------------

            1           2           3           4           5           6           7           8           9          10
 ........................................................................................................................
   1    9.999       9.771       9.474       9.035       8.383       7.446       6.151       4.457       2.379      7.1116E-03
   2    9.999       9.768       9.464       9.012       8.346       7.422       6.141       4.454       2.378      7.1089E-03
   3    9.999       9.759       9.432       8.929       8.194       7.339       6.109       4.444       2.376      7.1019E-03
   4    9.999       9.741       9.362       8.700       7.648       7.108       6.038       4.426       2.372      7.0896E-03
   5    9.999       9.724       9.277       8.301       6.035       6.701       5.951       4.408       2.368      7.0795E-03
   6    9.999       9.741       9.362       8.700       7.648       7.108       6.038       4.426       2.372      7.0896E-03
   7    9.999       9.759       9.432       8.929       8.194       7.339       6.109       4.445       2.376      7.1019E-03
   8    9.999       9.768       9.464       9.012       8.346       7.423       6.141       4.454       2.378      7.1090E-03
   9    9.999       9.772       9.475       9.037       8.385       7.448       6.152       4.458       2.379      7.1119E-03
  10    9.999       9.773       9.478       9.044       8.394       7.454       6.155       4.459       2.380      7.1129E-03

 HEAD WILL BE SAVED ON UNIT   51 AT END OF TIME STEP   20, STRESS PERIOD    3

 DRAWDOWN WILL BE SAVED ON UNIT   52 AT END OF TIME STEP   20, STRESS PERIOD    3
1
  VOLUMETRIC BUDGET FOR ENTIRE MODEL AT END OF TIME STEP   20, STRESS PERIOD   3
  ------------------------------------------------------------------------------

     CUMULATIVE VOLUMES      L**3       RATES FOR THIS TIME STEP      L**3/T
     ------------------                 ------------------------

           IN:                                      IN:
           ---                                      ---
             STORAGE =      350564.0000               STORAGE =        1572.1288
       CONSTANT HEAD =           0.0000         CONSTANT HEAD =           0.0000
               WELLS =           0.0000                 WELLS =           0.0000
     HEAD DEP BOUNDS =        4705.2358       HEAD DEP BOUNDS =         141.7243

            TOTAL IN =      355269.2500              TOTAL IN =        1713.8530

          OUT:                                     OUT:
          ----                                     ----
             STORAGE =           0.0000               STORAGE =           0.0000
       CONSTANT HEAD =           0.0000         CONSTANT HEAD =           0.0000
               WELLS =       10000.0000                 WELLS =         500.0000
     HEAD DEP BOUNDS =      345270.4688       HEAD DEP BOUNDS =        1213.8856

           TOTAL OUT =      355270.4688             TOTAL OUT =        1713.8856

            IN - OUT =          -1.2188              IN - OUT =      -3.2593E-02

 PERCENT DISCREPANCY =          -0.00     PERCENT DISCREPANCY =          -0.00






         TIME SUMMARY AT END OF TIME STEP   20 IN STRESS PERIOD    3
                    SECONDS     MINUTES      HOURS       DAYS        YEARS
                    -----------------------------------------------------------
   TIME STEP LENGTH  86400.      1440.0      24.000      1.0000     2.73785E-03
 STRESS PERIOD TIME 1.72800E+06  28800.      480.00      20.000     5.47570E-02
         TOTAL TIME 1.04544E+07 1.74240E+05  2904.0      121.00     0.33128    
1
 
 SOLVING FOR HEAD 

 OUTPUT CONTROL FOR STRESS PERIOD    3   TIME STEP   21
    SAVE HEAD FOR ALL LAYERS
    SAVE DRAWDOWN FOR ALL LAYERS
    SAVE BUDGET
    PRINT HEAD FOR ALL LAYERS
    PRINT BUDGET
 UBDSV1 SAVING "         STORAGE" ON UNIT  53 AT TIME STEP 21, STRESS PERIOD   3
 UBDSV2 SAVING "   CONSTANT HEAD" ON UNIT  53 AT TIME STEP 21, STRESS PERIOD   3
 UBDSV1 SAVING "FLOW RIGHT FACE " ON UNIT  53 AT TIME STEP 21, STRESS PERIOD   3
 UBDSV1 SAVING "FLOW FRONT FACE " ON UNIT  53 AT TIME STEP 21, STRESS PERIOD   3
 UBDSV1 SAVING "FLOW LOWER FACE " ON UNIT  53 AT TIME STEP 21, STRESS PERIOD   3
1
              HEAD IN LAYER   1 AT END OF TIME STEP  21 IN STRESS PERIOD    3
  ---------------------------------------------------------------------------

            1           2           3           4           5           6           7           8           9          10
 ........................................................................................................................
   1    9.999       9.776       9.484       9.052       8.405       7.473       6.180       4.486       2.403      3.4887E-03
   2    9.999       9.773       9.475       9.031       8.371       7.452       6.171       4.483       2.402      3.4875E-03
   3    9.999       9.765       9.447       8.955       8.230       7.375       6.143       4.475       2.400      3.4841E-03
   4    9.999       9.749       9.383       8.740       7.685       7.156       6.077       4.458       2.397      3.4780E-03
   5    9.999       9.734       9.302       8.336       5.134       6.738       5.993       4.441       2.393      3.4730E-03
   6    9.999       9.749       9.383       8.740       7.685       7.156       6.077       4.458       2.397      3.4781E-03
   7    9.999       9.765       9.447       8.955       8.230       7.375       6.143       4.475       2.400      3.4841E-03
   8    9.999       9.774       9.476       9.031       8.372       7.452       6.172       4.484       2.402      3.4875E-03
   9    9.999       9.777       9.485       9.054       8.408       7.474       6.181       4.487       2.403      3.4889E-03
  10    9.999       9.778       9.488       9.059       8.416       7.480       6.184       4.488       2.403      3.4893E-03
1
              HEAD IN LAYER   2 AT END OF TIME STEP  21 IN STRESS PERIOD    3
  ---------------------------------------------------------------------------

            1           2           3           4           5           6           7           8           9          10
 ........................................................................................................................
   1    9.999       9.772       9.475       9.037       8.386       7.450       6.157       4.466       2.389      6.5879E-03
   2    9.999       9.768       9.465       9.014       8.349       7.427       6.148       4.463       2.388      6.5854E-03
   3    9.999       9.759       9.434       8.932       8.199       7.344       6.116       4.453       2.385      6.5789E-03
   4    9.999       9.742       9.364       8.705       7.641       7.115       6.046       4.435       2.381      6.5675E-03
   5    9.999       9.725       9.280       8.295       5.537       6.694       5.959       4.417       2.378      6.5582E-03
   6    9.999       9.742       9.364       8.705       7.641       7.115       6.046       4.435       2.381      6.5675E-03
   7    9.999       9.759       9.434       8.932       8.199       7.345       6.117       4.453       2.385      6.5789E-03
   8    9.999       9.769       9.465       9.014       8.350       7.427       6.148       4.463       2.388      6.5855E-03
   9    9.999       9.772       9.476       9.039       8.388       7.452       6.158       4.466       2.389      6.5882E-03
  10    9.999       9.773       9.479       9.046       8.397       7.459       6.161       4.467       2.389      6.5891E-03
1
              HEAD IN LAYER   3 AT END OF TIME STEP  21 IN STRESS PERIOD    3
  ---------------------------------------------------------------------------

            1           2           3           4           5           6           7           8           9          10
 ........................................................................................................................
   1    9.999       9.769       9.468       9.027       8.372       7.434       6.140       4.449       2.376      7.0493E-03
   2    9.999       9.765       9.458       9.002       8.333       7.409       6.129       4.446       2.375      7.0464E-03
   3    9.999       9.755       9.424       8.916       8.177       7.322       6.096       4.436       2.372      7.0388E-03
   4    9.999       9.737       9.351       8.681       7.616       7.085       6.022       4.416       2.368      7.0257E-03
   5    9.999       9.719       9.264       8.272       5.833       6.666       5.932       4.397       2.364      7.0151E-03
   6    9.999       9.737       9.351       8.681       7.616       7.085       6.022       4.416       2.368      7.0257E-03
   7    9.999       9.755       9.424       8.916       8.177       7.322       6.096       4.436       2.372      7.0388E-03
   8    9.999       9.765       9.458       9.003       8.334       7.410       6.130       4.446       2.375      7.0465E-03
   9    9.999       9.769       9.470       9.029       8.375       7.436       6.141       4.450       2.376      7.0497E-03
  10    9.999       9.770       9.473       9.036       8.385       7.443       6.144       4.451       2.376      7.0508E-03
1
              HEAD IN LAYER   4 AT END OF TIME STEP  21 IN STRESS PERIOD    3
  ---------------------------------------------------------------------------

            1           2           3           4           5           6           7           8           9          10
 ........................................................................................................................
   1    9.999       9.767       9.465       9.022       8.365       7.426       6.131       4.441       2.369      7.0827E-03
   2    9.999       9.763       9.454       8.996       8.325       7.400       6.120       4.437       2.368      7.0797E-03
   3    9.999       9.753       9.420       8.907       8.166       7.311       6.086       4.427       2.366      7.0717E-03
   4    9.999       9.734       9.345       8.669       7.605       7.070       6.010       4.407       2.361      7.0580E-03
   5    9.999       9.716       9.257       8.262       5.975       6.654       5.919       4.387       2.357      7.0471E-03
   6    9.999       9.734       9.345       8.669       7.605       7.070       6.010       4.407       2.361      7.0580E-03
   7    9.999       9.753       9.420       8.908       8.166       7.311       6.086       4.427       2.366      7.0717E-03
   8    9.999       9.763       9.454       8.997       8.326       7.401       6.120       4.437       2.368      7.0798E-03
   9    9.999       9.768       9.466       9.024       8.368       7.428       6.133       4.442       2.370      7.0832E-03
  10    9.999       9.769       9.470       9.031       8.378       7.435       6.136       4.443       2.370      7.0843E-03

 HEAD WILL BE SAVED ON UNIT   51 AT END OF TIME STEP   21, STRESS PERIOD    3

 DRAWDOWN WILL BE SAVED ON UNIT   52 AT END OF TIME STEP   21, STRESS PERIOD    3
1
  VOLUMETRIC BUDGET FOR ENTIRE MODEL AT END OF TIME STEP   21, STRESS PERIOD   3
  ------------------------------------------------------------------------------

     CUMULATIVE VOLUMES      L**3       RATES FOR THIS TIME STEP      L**3/T
     ------------------                 ------------------------

           IN:                                      IN:
           ---                                      ---
             STORAGE =      352127.6875               STORAGE =        1563.6797
       CONSTANT HEAD =           0.0000         CONSTANT HEAD =           0.0000
               WELLS =           0.0000                 WELLS =           0.0000
     HEAD DEP BOUNDS =        4850.1772       HEAD DEP BOUNDS =         144.9412

            TOTAL IN =      356977.8750              TOTAL IN =        1708.6208

          OUT:                                     OUT:
          ----                                     ----
             STORAGE =           0.0000               STORAGE =           0.0000
       CONSTANT HEAD =           0.0000         CONSTANT HEAD =           0.0000
               WELLS =       10500.0000                 WELLS =         500.0000
     HEAD DEP BOUNDS =      346479.1250       HEAD DEP BOUNDS =        1208.6447

           TOTAL OUT =      356979.1250             TOTAL OUT =        1708.6447

            IN - OUT =          -1.2500              IN - OUT =      -2.3804E-02

 PERCENT DISCREPANCY =          -0.00     PERCENT DISCREPANCY =          -0.00






         TIME SUMMARY AT END OF TIME STEP   21 IN STRESS PERIOD    3
                    SECONDS     MINUTES      HOURS       DAYS        YEARS
                    -----------------------------------------------------------
   TIME STEP LENGTH  86400.      1440.0      24.000      1.0000     2.73785E-03
 STRESS PERIOD TIME 1.81440E+06  30240.      504.00      21.000     5.74949E-02
         TOTAL TIME 1.05408E+07 1.75680E+05  2928.0      122.00     0.33402    
1
 
 SOLVING FOR HEAD 

 OUTPUT CONTROL FOR STRESS PERIOD    3   TIME STEP   22
    SAVE HEAD FOR ALL LAYERS
    SAVE DRAWDOWN FOR ALL LAYERS
    SAVE BUDGET
    PRINT HEAD FOR ALL LAYERS
    PRINT BUDGET
 UBDSV1 SAVING "         STORAGE" ON UNIT  53 AT TIME STEP 22, STRESS PERIOD   3
 UBDSV2 SAVING "   CONSTANT HEAD" ON UNIT  53 AT TIME STEP 22, STRESS PERIOD   3
 UBDSV1 SAVING "FLOW RIGHT FACE " ON UNIT  53 AT TIME STEP 22, STRESS PERIOD   3
 UBDSV1 SAVING "FLOW FRONT FACE " ON UNIT  53 AT TIME STEP 22, STRESS PERIOD   3
 UBDSV1 SAVING "FLOW LOWER FACE " ON UNIT  53 AT TIME STEP 22, STRESS PERIOD   3
1
              HEAD IN LAYER   1 AT END OF TIME STEP  22 IN STRESS PERIOD    3
  ---------------------------------------------------------------------------

            1           2           3           4           5           6           7           8           9          10
 ........................................................................................................................
   1    9.999       9.772       9.476       9.039       8.388       7.453       6.161       4.470       2.393      3.4730E-03
   2    9.999       9.769       9.466       9.016       8.351       7.430       6.151       4.467       2.392      3.4716E-03
   3    9.999       9.760       9.435       8.934       8.202       7.347       6.120       4.457       2.390      3.4676E-03
   4    9.999       9.743       9.366       8.708       7.640       7.118       6.049       4.439       2.386      3.4611E-03
   5    9.999       9.726       9.282       8.295       5.070       6.690       5.961       4.421       2.382      3.4557E-03
   6    9.999       9.743       9.366       8.708       7.640       7.118       6.049       4.439       2.386      3.4611E-03
   7    9.999       9.760       9.435       8.934       8.202       7.347       6.120       4.457       2.390      3.4677E-03
   8    9.999       9.769       9.466       9.016       8.352       7.430       6.151       4.467       2.392      3.4716E-03
   9    9.999       9.773       9.477       9.041       8.390       7.455       6.162       4.470       2.393      3.4732E-03
  10    9.999       9.774       9.480       9.047       8.399       7.461       6.165       4.471       2.394      3.4738E-03
1
              HEAD IN LAYER   2 AT END OF TIME STEP  22 IN STRESS PERIOD    3
  ---------------------------------------------------------------------------

            1           2           3           4           5           6           7           8           9          10
 ........................................................................................................................
   1    9.999       9.768       9.466       9.024       8.368       7.431       6.138       4.450       2.379      6.5609E-03
   2    9.999       9.764       9.455       8.998       8.329       7.405       6.127       4.446       2.378      6.5580E-03
   3    9.999       9.754       9.421       8.910       8.170       7.317       6.093       4.435       2.375      6.5506E-03
   4    9.999       9.735       9.347       8.674       7.598       7.077       6.018       4.415       2.371      6.5380E-03
   5    9.999       9.717       9.259       8.255       5.475       6.647       5.927       4.397       2.367      6.5278E-03
   6    9.999       9.735       9.347       8.674       7.598       7.077       6.018       4.415       2.371      6.5380E-03
   7    9.999       9.754       9.421       8.911       8.170       7.317       6.093       4.435       2.375      6.5506E-03
   8    9.999       9.764       9.455       8.999       8.329       7.406       6.127       4.446       2.378      6.5581E-03
   9    9.999       9.768       9.468       9.026       8.371       7.433       6.139       4.450       2.379      6.5613E-03
  10    9.999       9.769       9.471       9.033       8.381       7.440       6.143       4.451       2.379      6.5623E-03
1
              HEAD IN LAYER   3 AT END OF TIME STEP  22 IN STRESS PERIOD    3
  ---------------------------------------------------------------------------

            1           2           3           4           5           6           7           8           9          10
 ........................................................................................................................
   1    9.999       9.764       9.460       9.014       8.355       7.414       6.121       4.433       2.366      7.0208E-03
   2    9.999       9.760       9.448       8.987       8.313       7.387       6.109       4.429       2.365      7.0174E-03
   3    9.999       9.750       9.412       8.894       8.148       7.295       6.073       4.418       2.362      7.0088E-03
   4    9.999       9.729       9.334       8.650       7.573       7.047       5.994       4.397       2.357      6.9943E-03
   5    9.999       9.711       9.244       8.233       5.774       6.620       5.901       4.377       2.353      6.9829E-03
   6    9.999       9.729       9.334       8.650       7.573       7.047       5.994       4.397       2.357      6.9943E-03
   7    9.999       9.750       9.412       8.894       8.149       7.295       6.073       4.418       2.362      7.0089E-03
   8    9.999       9.761       9.448       8.987       8.314       7.388       6.109       4.429       2.365      7.0175E-03
   9    9.999       9.765       9.461       9.016       8.358       7.417       6.122       4.434       2.366      7.0213E-03
  10    9.999       9.766       9.465       9.024       8.369       7.424       6.126       4.435       2.367      7.0225E-03
1
              HEAD IN LAYER   4 AT END OF TIME STEP  22 IN STRESS PERIOD    3
  ---------------------------------------------------------------------------

            1           2           3           4           5           6           7           8           9          10
 ........................................................................................................................
   1    9.999       9.763       9.456       9.009       8.348       7.406       6.112       4.425       2.360      7.0542E-03
   2    9.999       9.759       9.444       8.981       8.305       7.378       6.100       4.421       2.359      7.0507E-03
   3    9.999       9.748       9.407       8.886       8.137       7.283       6.063       4.409       2.356      7.0417E-03
   4    9.999       9.727       9.328       8.638       7.562       7.032       5.982       4.387       2.351      7.0265E-03
   5    9.999       9.708       9.236       8.223       5.917       6.608       5.888       4.367       2.347      7.0147E-03
   6    9.999       9.727       9.328       8.638       7.562       7.032       5.982       4.387       2.351      7.0265E-03
   7    9.999       9.748       9.407       8.886       8.138       7.284       6.063       4.409       2.356      7.0417E-03
   8    9.999       9.759       9.444       8.981       8.306       7.379       6.100       4.421       2.359      7.0508E-03
   9    9.999       9.763       9.458       9.011       8.351       7.409       6.113       4.426       2.360      7.0548E-03
  10    9.999       9.765       9.462       9.019       8.362       7.417       6.117       4.427       2.361      7.0560E-03

 HEAD WILL BE SAVED ON UNIT   51 AT END OF TIME STEP   22, STRESS PERIOD    3

 DRAWDOWN WILL BE SAVED ON UNIT   52 AT END OF TIME STEP   22, STRESS PERIOD    3
1
  VOLUMETRIC BUDGET FOR ENTIRE MODEL AT END OF TIME STEP   22, STRESS PERIOD   3
  ------------------------------------------------------------------------------

     CUMULATIVE VOLUMES      L**3       RATES FOR THIS TIME STEP      L**3/T
     ------------------                 ------------------------

           IN:                                      IN:
           ---                                      ---
             STORAGE =      353682.9062               STORAGE =        1555.2231
       CONSTANT HEAD =           0.0000         CONSTANT HEAD =           0.0000
               WELLS =           0.0000                 WELLS =           0.0000
     HEAD DEP BOUNDS =        4998.3696       HEAD DEP BOUNDS =         148.1926

            TOTAL IN =      358681.2812              TOTAL IN =        1703.4156

          OUT:                                     OUT:
          ----                                     ----
             STORAGE =           0.0000               STORAGE =           0.0000
       CONSTANT HEAD =           0.0000         CONSTANT HEAD =           0.0000
               WELLS =       11000.0000                 WELLS =         500.0000
     HEAD DEP BOUNDS =      347682.5625       HEAD DEP BOUNDS =        1203.4414

           TOTAL OUT =      358682.5625             TOTAL OUT =        1703.4414

            IN - OUT =          -1.2812              IN - OUT =      -2.5757E-02

 PERCENT DISCREPANCY =          -0.00     PERCENT DISCREPANCY =          -0.00






         TIME SUMMARY AT END OF TIME STEP   22 IN STRESS PERIOD    3
                    SECONDS     MINUTES      HOURS       DAYS        YEARS
                    -----------------------------------------------------------
   TIME STEP LENGTH  86400.      1440.0      24.000      1.0000     2.73785E-03
 STRESS PERIOD TIME 1.90080E+06  31680.      528.00      22.000     6.02327E-02
         TOTAL TIME 1.06272E+07 1.77120E+05  2952.0      123.00     0.33676    
1
 
 SOLVING FOR HEAD 

 OUTPUT CONTROL FOR STRESS PERIOD    3   TIME STEP   23
    SAVE HEAD FOR ALL LAYERS
    SAVE DRAWDOWN FOR ALL LAYERS
    SAVE BUDGET
    PRINT HEAD FOR ALL LAYERS
    PRINT BUDGET
 UBDSV1 SAVING "         STORAGE" ON UNIT  53 AT TIME STEP 23, STRESS PERIOD   3
 UBDSV2 SAVING "   CONSTANT HEAD" ON UNIT  53 AT TIME STEP 23, STRESS PERIOD   3
 UBDSV1 SAVING "FLOW RIGHT FACE " ON UNIT  53 AT TIME STEP 23, STRESS PERIOD   3
 UBDSV1 SAVING "FLOW FRONT FACE " ON UNIT  53 AT TIME STEP 23, STRESS PERIOD   3
 UBDSV1 SAVING "FLOW LOWER FACE " ON UNIT  53 AT TIME STEP 23, STRESS PERIOD   3
1
              HEAD IN LAYER   1 AT END OF TIME STEP  23 IN STRESS PERIOD    3
  ---------------------------------------------------------------------------

            1           2           3           4           5           6           7           8           9          10
 ........................................................................................................................
   1    9.999       9.768       9.467       9.025       8.370       7.433       6.141       4.454       2.383      3.4577E-03
   2    9.999       9.764       9.456       9.000       8.331       7.408       6.130       4.450       2.382      3.4559E-03
   3    9.999       9.754       9.422       8.913       8.173       7.320       6.096       4.439       2.380      3.4516E-03
   4    9.999       9.736       9.349       8.677       7.596       7.080       6.021       4.419       2.375      3.4441E-03
   5    9.999       9.718       9.262       8.255       5.008       6.643       5.930       4.400       2.371      3.4383E-03
   6    9.999       9.736       9.349       8.677       7.596       7.080       6.021       4.419       2.375      3.4441E-03
   7    9.999       9.754       9.423       8.913       8.173       7.320       6.096       4.439       2.380      3.4516E-03
   8    9.999       9.765       9.456       9.001       8.332       7.408       6.130       4.450       2.382      3.4560E-03
   9    9.999       9.769       9.468       9.028       8.373       7.436       6.142       4.454       2.384      3.4579E-03
  10    9.999       9.770       9.472       9.035       8.383       7.443       6.146       4.455       2.384      3.4586E-03
1
              HEAD IN LAYER   2 AT END OF TIME STEP  23 IN STRESS PERIOD    3
  ---------------------------------------------------------------------------

            1           2           3           4           5           6           7           8           9          10
 ........................................................................................................................
   1    9.999       9.763       9.458       9.011       8.351       7.411       6.119       4.433       2.369      6.5341E-03
   2    9.999       9.759       9.445       8.983       8.308       7.383       6.106       4.429       2.368      6.5309E-03
   3    9.999       9.748       9.409       8.889       8.142       7.289       6.070       4.418       2.365      6.5225E-03
   4    9.999       9.728       9.330       8.643       7.555       7.039       5.990       4.396       2.360      6.5085E-03
   5    9.999       9.709       9.239       8.216       5.416       6.601       5.896       4.376       2.356      6.4976E-03
   6    9.999       9.728       9.330       8.643       7.555       7.039       5.990       4.396       2.360      6.5085E-03
   7    9.999       9.748       9.409       8.889       8.142       7.289       6.070       4.418       2.365      6.5226E-03
   8    9.999       9.759       9.446       8.984       8.309       7.384       6.107       4.429       2.368      6.5310E-03
   9    9.999       9.764       9.459       9.013       8.354       7.414       6.120       4.434       2.369      6.5347E-03
  10    9.999       9.765       9.463       9.021       8.365       7.421       6.124       4.435       2.370      6.5359E-03
1
              HEAD IN LAYER   3 AT END OF TIME STEP  23 IN STRESS PERIOD    3
  ---------------------------------------------------------------------------

            1           2           3           4           5           6           7           8           9          10
 ........................................................................................................................
   1    9.999       9.760       9.451       9.000       8.337       7.395       6.101       4.417       2.357      6.9925E-03
   2    9.999       9.756       9.438       8.971       8.292       7.366       6.088       4.412       2.355      6.9887E-03
   3    9.999       9.744       9.399       8.873       8.120       7.267       6.049       4.400       2.352      6.9791E-03
   4    9.999       9.722       9.317       8.619       7.530       7.010       5.966       4.377       2.347      6.9631E-03
   5    9.999       9.703       9.224       8.194       5.718       6.575       5.869       4.356       2.343      6.9508E-03
   6    9.999       9.722       9.317       8.619       7.530       7.010       5.966       4.377       2.347      6.9631E-03
   7    9.999       9.744       9.399       8.873       8.120       7.267       6.049       4.400       2.352      6.9791E-03
   8    9.999       9.756       9.438       8.972       8.293       7.366       6.089       4.413       2.355      6.9889E-03
   9    9.999       9.761       9.453       9.003       8.341       7.398       6.103       4.418       2.357      6.9931E-03
  10    9.999       9.762       9.457       9.012       8.353       7.406       6.107       4.419       2.357      6.9946E-03
1
              HEAD IN LAYER   4 AT END OF TIME STEP  23 IN STRESS PERIOD    3
  ---------------------------------------------------------------------------

            1           2           3           4           5           6           7           8           9          10
 ........................................................................................................................
   1    9.999       9.759       9.448       8.995       8.330       7.387       6.093       4.409       2.350      7.0259E-03
   2    9.999       9.754       9.434       8.965       8.284       7.357       6.079       4.404       2.349      7.0219E-03
   3    9.999       9.742       9.394       8.865       8.109       7.256       6.039       4.391       2.346      7.0119E-03
   4    9.999       9.720       9.311       8.607       7.520       6.995       5.954       4.368       2.340      6.9952E-03
   5    9.999       9.700       9.216       8.185       5.862       6.564       5.856       4.346       2.336      6.9825E-03
   6    9.999       9.720       9.311       8.607       7.520       6.995       5.954       4.368       2.340      6.9952E-03
   7    9.999       9.742       9.394       8.865       8.110       7.256       6.039       4.391       2.346      7.0119E-03
   8    9.999       9.754       9.435       8.966       8.285       7.357       6.080       4.404       2.349      7.0221E-03
   9    9.999       9.759       9.449       8.998       8.334       7.390       6.094       4.410       2.351      7.0266E-03
  10    9.999       9.761       9.454       9.007       8.346       7.398       6.099       4.411       2.351      7.0281E-03

 HEAD WILL BE SAVED ON UNIT   51 AT END OF TIME STEP   23, STRESS PERIOD    3

 DRAWDOWN WILL BE SAVED ON UNIT   52 AT END OF TIME STEP   23, STRESS PERIOD    3
1
  VOLUMETRIC BUDGET FOR ENTIRE MODEL AT END OF TIME STEP   23, STRESS PERIOD   3
  ------------------------------------------------------------------------------

     CUMULATIVE VOLUMES      L**3       RATES FOR THIS TIME STEP      L**3/T
     ------------------                 ------------------------

           IN:                                      IN:
           ---                                      ---
             STORAGE =      355229.6875               STORAGE =        1546.7751
       CONSTANT HEAD =           0.0000         CONSTANT HEAD =           0.0000
               WELLS =           0.0000                 WELLS =           0.0000
     HEAD DEP BOUNDS =        5149.8535       HEAD DEP BOUNDS =         151.4837

            TOTAL IN =      360379.5312              TOTAL IN =        1698.2589

          OUT:                                     OUT:
          ----                                     ----
             STORAGE =           0.0000               STORAGE =           0.0000
       CONSTANT HEAD =           0.0000         CONSTANT HEAD =           0.0000
               WELLS =       11500.0000                 WELLS =         500.0000
     HEAD DEP BOUNDS =      348880.8438       HEAD DEP BOUNDS =        1198.2828

           TOTAL OUT =      360380.8438             TOTAL OUT =        1698.2828

            IN - OUT =          -1.3125              IN - OUT =      -2.3926E-02

 PERCENT DISCREPANCY =          -0.00     PERCENT DISCREPANCY =          -0.00






         TIME SUMMARY AT END OF TIME STEP   23 IN STRESS PERIOD    3
                    SECONDS     MINUTES      HOURS       DAYS        YEARS
                    -----------------------------------------------------------
   TIME STEP LENGTH  86400.      1440.0      24.000      1.0000     2.73785E-03
 STRESS PERIOD TIME 1.98720E+06  33120.      552.00      23.000     6.29706E-02
         TOTAL TIME 1.07136E+07 1.78560E+05  2976.0      124.00     0.33949    
1
 
 SOLVING FOR HEAD 

 OUTPUT CONTROL FOR STRESS PERIOD    3   TIME STEP   24
    SAVE HEAD FOR ALL LAYERS
    SAVE DRAWDOWN FOR ALL LAYERS
    SAVE BUDGET
    PRINT HEAD FOR ALL LAYERS
    PRINT BUDGET
 UBDSV1 SAVING "         STORAGE" ON UNIT  53 AT TIME STEP 24, STRESS PERIOD   3
 UBDSV2 SAVING "   CONSTANT HEAD" ON UNIT  53 AT TIME STEP 24, STRESS PERIOD   3
 UBDSV1 SAVING "FLOW RIGHT FACE " ON UNIT  53 AT TIME STEP 24, STRESS PERIOD   3
 UBDSV1 SAVING "FLOW FRONT FACE " ON UNIT  53 AT TIME STEP 24, STRESS PERIOD   3
 UBDSV1 SAVING "FLOW LOWER FACE " ON UNIT  53 AT TIME STEP 24, STRESS PERIOD   3
1
              HEAD IN LAYER   1 AT END OF TIME STEP  24 IN STRESS PERIOD    3
  ---------------------------------------------------------------------------

            1           2           3           4           5           6           7           8           9          10
 ........................................................................................................................
   1    9.999       9.764       9.459       9.012       8.353       7.414       6.122       4.437       2.374      3.4424E-03
   2    9.999       9.760       9.446       8.985       8.311       7.386       6.110       4.433       2.373      3.4404E-03
   3    9.999       9.749       9.410       8.892       8.145       7.292       6.073       4.421       2.370      3.4354E-03
   4    9.999       9.728       9.332       8.646       7.553       7.042       5.993       4.400       2.364      3.4272E-03
   5    9.999       9.710       9.242       8.217       4.949       6.597       5.898       4.379       2.360      3.4210E-03
   6    9.999       9.728       9.332       8.646       7.554       7.042       5.993       4.400       2.364      3.4272E-03
   7    9.999       9.749       9.410       8.892       8.145       7.292       6.073       4.421       2.370      3.4355E-03
   8    9.999       9.760       9.447       8.985       8.311       7.387       6.110       4.433       2.373      3.4405E-03
   9    9.999       9.764       9.460       9.015       8.356       7.416       6.123       4.438       2.374      3.4426E-03
  10    9.999       9.766       9.464       9.023       8.367       7.424       6.127       4.439       2.374      3.4434E-03
1
              HEAD IN LAYER   2 AT END OF TIME STEP  24 IN STRESS PERIOD    3
  ---------------------------------------------------------------------------

            1           2           3           4           5           6           7           8           9          10
 ........................................................................................................................
   1    9.999       9.759       9.449       8.997       8.333       7.391       6.099       4.417       2.360      6.5077E-03
   2    9.999       9.755       9.435       8.967       8.288       7.362       6.086       4.413       2.358      6.5040E-03
   3    9.999       9.742       9.396       8.868       8.114       7.262       6.046       4.400       2.355      6.4946E-03
   4    9.999       9.720       9.313       8.612       7.513       7.002       5.962       4.377       2.349      6.4792E-03
   5    9.999       9.701       9.219       8.178       5.359       6.556       5.864       4.355       2.345      6.4674E-03
   6    9.999       9.720       9.313       8.612       7.513       7.002       5.962       4.377       2.350      6.4792E-03
   7    9.999       9.742       9.396       8.868       8.114       7.262       6.046       4.400       2.355      6.4947E-03
   8    9.999       9.755       9.436       8.968       8.289       7.362       6.086       4.413       2.358      6.5041E-03
   9    9.999       9.760       9.450       9.000       8.337       7.394       6.101       4.418       2.360      6.5083E-03
  10    9.999       9.761       9.455       9.009       8.349       7.403       6.105       4.420       2.360      6.5097E-03
1
              HEAD IN LAYER   3 AT END OF TIME STEP  24 IN STRESS PERIOD    3
  ---------------------------------------------------------------------------

            1           2           3           4           5           6           7           8           9          10
 ........................................................................................................................
   1    9.999       9.756       9.442       8.987       8.320       7.375       6.082       4.401       2.347      6.9646E-03
   2    9.999       9.751       9.428       8.955       8.272       7.344       6.068       4.396       2.346      6.9603E-03
   3    9.999       9.738       9.386       8.852       8.092       7.239       6.026       4.382       2.342      6.9495E-03
   4    9.999       9.715       9.300       8.589       7.489       6.973       5.938       4.358       2.336      6.9320E-03
   5    9.999       9.695       9.204       8.157       5.663       6.531       5.838       4.336       2.332      6.9188E-03
   6    9.999       9.715       9.300       8.589       7.489       6.973       5.938       4.358       2.336      6.9320E-03
   7    9.999       9.738       9.386       8.852       8.092       7.240       6.026       4.382       2.342      6.9496E-03
   8    9.999       9.751       9.428       8.956       8.273       7.344       6.068       4.396       2.346      6.9605E-03
   9    9.999       9.757       9.444       8.990       8.324       7.378       6.084       4.402       2.348      6.9653E-03
  10    9.999       9.758       9.449       8.999       8.337       7.388       6.088       4.404       2.348      6.9669E-03
1
              HEAD IN LAYER   4 AT END OF TIME STEP  24 IN STRESS PERIOD    3
  ---------------------------------------------------------------------------

            1           2           3           4           5           6           7           8           9          10
 ........................................................................................................................
   1    9.999       9.754       9.439       8.982       8.313       7.367       6.073       4.393       2.341      6.9980E-03
   2    9.999       9.749       9.424       8.949       8.264       7.335       6.059       4.388       2.340      6.9934E-03
   3    9.999       9.736       9.381       8.844       8.081       7.228       6.016       4.374       2.336      6.9822E-03
   4    9.999       9.712       9.293       8.577       7.479       6.958       5.926       4.348       2.330      6.9640E-03
   5    9.999       9.691       9.196       8.148       5.808       6.520       5.825       4.326       2.325      6.9504E-03
   6    9.999       9.712       9.294       8.577       7.479       6.958       5.926       4.348       2.330      6.9640E-03
   7    9.999       9.736       9.381       8.844       8.082       7.228       6.016       4.374       2.336      6.9823E-03
   8    9.999       9.749       9.425       8.950       8.265       7.335       6.059       4.388       2.340      6.9937E-03
   9    9.999       9.755       9.441       8.985       8.317       7.370       6.075       4.394       2.341      6.9987E-03
  10    9.999       9.757       9.446       8.995       8.330       7.380       6.080       4.396       2.342      7.0005E-03

 HEAD WILL BE SAVED ON UNIT   51 AT END OF TIME STEP   24, STRESS PERIOD    3

 DRAWDOWN WILL BE SAVED ON UNIT   52 AT END OF TIME STEP   24, STRESS PERIOD    3
1
  VOLUMETRIC BUDGET FOR ENTIRE MODEL AT END OF TIME STEP   24, STRESS PERIOD   3
  ------------------------------------------------------------------------------

     CUMULATIVE VOLUMES      L**3       RATES FOR THIS TIME STEP      L**3/T
     ------------------                 ------------------------

           IN:                                      IN:
           ---                                      ---
             STORAGE =      356768.0000               STORAGE =        1538.3187
       CONSTANT HEAD =           0.0000         CONSTANT HEAD =           0.0000
               WELLS =           0.0000                 WELLS =           0.0000
     HEAD DEP BOUNDS =        5304.6934       HEAD DEP BOUNDS =         154.8398

            TOTAL IN =      362072.6875              TOTAL IN =        1693.1586

          OUT:                                     OUT:
          ----                                     ----
             STORAGE =           0.0000               STORAGE =           0.0000
       CONSTANT HEAD =           0.0000         CONSTANT HEAD =           0.0000
               WELLS =       12000.0000                 WELLS =         500.0000
     HEAD DEP BOUNDS =      350074.0000       HEAD DEP BOUNDS =        1193.1566

           TOTAL OUT =      362074.0000             TOTAL OUT =        1693.1566

            IN - OUT =          -1.3125              IN - OUT =       1.9531E-03

 PERCENT DISCREPANCY =          -0.00     PERCENT DISCREPANCY =           0.00






         TIME SUMMARY AT END OF TIME STEP   24 IN STRESS PERIOD    3
                    SECONDS     MINUTES      HOURS       DAYS        YEARS
                    -----------------------------------------------------------
   TIME STEP LENGTH  86400.      1440.0      24.000      1.0000     2.73785E-03
 STRESS PERIOD TIME 2.07360E+06  34560.      576.00      24.000     6.57084E-02
         TOTAL TIME 1.08000E+07 1.80000E+05  3000.0      125.00     0.34223    
1
 
 SOLVING FOR HEAD 

 OUTPUT CONTROL FOR STRESS PERIOD    3   TIME STEP   25
    SAVE HEAD FOR ALL LAYERS
    SAVE DRAWDOWN FOR ALL LAYERS
    SAVE BUDGET
    PRINT HEAD FOR ALL LAYERS
    PRINT BUDGET
 UBDSV1 SAVING "         STORAGE" ON UNIT  53 AT TIME STEP 25, STRESS PERIOD   3
 UBDSV2 SAVING "   CONSTANT HEAD" ON UNIT  53 AT TIME STEP 25, STRESS PERIOD   3
 UBDSV1 SAVING "FLOW RIGHT FACE " ON UNIT  53 AT TIME STEP 25, STRESS PERIOD   3
 UBDSV1 SAVING "FLOW FRONT FACE " ON UNIT  53 AT TIME STEP 25, STRESS PERIOD   3
 UBDSV1 SAVING "FLOW LOWER FACE " ON UNIT  53 AT TIME STEP 25, STRESS PERIOD   3
1
              HEAD IN LAYER   1 AT END OF TIME STEP  25 IN STRESS PERIOD    3
  ---------------------------------------------------------------------------

            1           2           3           4           5           6           7           8           9          10
 ........................................................................................................................
   1    9.999       9.760       9.450       8.999       8.335       7.394       6.102       4.421       2.364      3.4272E-03
   2    9.999       9.755       9.436       8.969       8.290       7.364       6.089       4.416       2.363      3.4250E-03
   3    9.999       9.743       9.397       8.870       8.117       7.265       6.049       4.404       2.359      3.4196E-03
   4    9.999       9.721       9.315       8.616       7.512       7.005       5.965       4.380       2.354      3.4106E-03
   5    9.999       9.702       9.222       8.179       4.892       6.552       5.867       4.359       2.350      3.4037E-03
   6    9.999       9.721       9.315       8.616       7.512       7.005       5.965       4.380       2.354      3.4107E-03
   7    9.999       9.743       9.397       8.871       8.117       7.265       6.049       4.404       2.360      3.4196E-03
   8    9.999       9.755       9.437       8.970       8.291       7.365       6.089       4.417       2.363      3.4251E-03
   9    9.999       9.760       9.451       9.002       8.339       7.397       6.104       4.422       2.364      3.4275E-03
  10    9.999       9.762       9.456       9.010       8.351       7.406       6.108       4.424       2.365      3.4284E-03
1
              HEAD IN LAYER   2 AT END OF TIME STEP  25 IN STRESS PERIOD    3
  ---------------------------------------------------------------------------

            1           2           3           4           5           6           7           8           9          10
 ........................................................................................................................
   1    9.999       9.755       9.440       8.984       8.316       7.372       6.080       4.401       2.350      6.4815E-03
   2    9.999       9.750       9.425       8.951       8.268       7.340       6.065       4.396       2.349      6.4773E-03
   3    9.999       9.737       9.383       8.847       8.086       7.234       6.023       4.382       2.345      6.4669E-03
   4    9.999       9.713       9.296       8.582       7.472       6.965       5.934       4.357       2.339      6.4501E-03
   5    9.999       9.692       9.199       8.141       5.304       6.512       5.833       4.335       2.334      6.4374E-03
   6    9.999       9.713       9.296       8.582       7.472       6.965       5.934       4.357       2.339      6.4501E-03
   7    9.999       9.737       9.383       8.847       8.086       7.234       6.023       4.382       2.345      6.4670E-03
   8    9.999       9.750       9.426       8.952       8.269       7.341       6.066       4.396       2.349      6.4775E-03
   9    9.999       9.756       9.442       8.987       8.320       7.375       6.082       4.402       2.351      6.4822E-03
  10    9.999       9.757       9.447       8.997       8.333       7.385       6.087       4.404       2.351      6.4838E-03
1
              HEAD IN LAYER   3 AT END OF TIME STEP  25 IN STRESS PERIOD    3
  ---------------------------------------------------------------------------

            1           2           3           4           5           6           7           8           9          10
 ........................................................................................................................
   1    9.999       9.752       9.433       8.973       8.302       7.356       6.063       4.385       2.338      6.9369E-03
   2    9.999       9.746       9.418       8.939       8.251       7.322       6.047       4.380       2.336      6.9320E-03
   3    9.999       9.732       9.373       8.830       8.064       7.212       6.002       4.365       2.332      6.9202E-03
   4    9.999       9.708       9.283       8.559       7.449       6.936       5.910       4.338       2.326      6.9010E-03
   5    9.999       9.686       9.184       8.121       5.610       6.487       5.807       4.315       2.321      6.8869E-03
   6    9.999       9.708       9.283       8.559       7.449       6.936       5.910       4.338       2.326      6.9011E-03
   7    9.999       9.732       9.373       8.831       8.065       7.212       6.003       4.365       2.332      6.9202E-03
   8    9.999       9.746       9.418       8.940       8.253       7.323       6.048       4.380       2.336      6.9323E-03
   9    9.999       9.752       9.435       8.977       8.307       7.359       6.065       4.386       2.338      6.9378E-03
  10    9.999       9.754       9.441       8.987       8.321       7.369       6.070       4.388       2.339      6.9396E-03
1
              HEAD IN LAYER   4 AT END OF TIME STEP  25 IN STRESS PERIOD    3
  ---------------------------------------------------------------------------

            1           2           3           4           5           6           7           8           9          10
 ........................................................................................................................
   1    9.999       9.750       9.430       8.968       8.295       7.347       6.054       4.377       2.332      6.9703E-03
   2    9.999       9.744       9.414       8.933       8.243       7.313       6.038       4.371       2.330      6.9652E-03
   3    9.999       9.730       9.368       8.822       8.053       7.201       5.992       4.356       2.326      6.9528E-03
   4    9.999       9.705       9.276       8.547       7.439       6.922       5.898       4.329       2.319      6.9330E-03
   5    9.999       9.683       9.176       8.112       5.756       6.477       5.795       4.306       2.314      6.9184E-03
   6    9.999       9.705       9.276       8.547       7.439       6.922       5.898       4.329       2.319      6.9330E-03
   7    9.999       9.730       9.368       8.822       8.054       7.201       5.992       4.356       2.326      6.9528E-03
   8    9.999       9.745       9.414       8.934       8.245       7.314       6.039       4.372       2.330      6.9654E-03
   9    9.999       9.751       9.432       8.972       8.300       7.351       6.056       4.378       2.332      6.9712E-03
  10    9.999       9.753       9.437       8.982       8.314       7.362       6.062       4.380       2.333      6.9731E-03

 HEAD WILL BE SAVED ON UNIT   51 AT END OF TIME STEP   25, STRESS PERIOD    3

 DRAWDOWN WILL BE SAVED ON UNIT   52 AT END OF TIME STEP   25, STRESS PERIOD    3
1
  VOLUMETRIC BUDGET FOR ENTIRE MODEL AT END OF TIME STEP   25, STRESS PERIOD   3
  ------------------------------------------------------------------------------

     CUMULATIVE VOLUMES      L**3       RATES FOR THIS TIME STEP      L**3/T
     ------------------                 ------------------------

           IN:                                      IN:
           ---                                      ---
             STORAGE =      358297.8438               STORAGE =        1529.8541
       CONSTANT HEAD =           0.0000         CONSTANT HEAD =           0.0000
               WELLS =           0.0000                 WELLS =           0.0000
     HEAD DEP BOUNDS =        5462.9141       HEAD DEP BOUNDS =         158.2208

            TOTAL IN =      363760.7500              TOTAL IN =        1688.0750

          OUT:                                     OUT:
          ----                                     ----
             STORAGE =           0.0000               STORAGE =           0.0000
       CONSTANT HEAD =           0.0000         CONSTANT HEAD =           0.0000
               WELLS =       12500.0000                 WELLS =         500.0000
     HEAD DEP BOUNDS =      351262.0625       HEAD DEP BOUNDS =        1188.0710

           TOTAL OUT =      363762.0625             TOTAL OUT =        1688.0710

            IN - OUT =          -1.3125              IN - OUT =       3.9062E-03

 PERCENT DISCREPANCY =          -0.00     PERCENT DISCREPANCY =           0.00






         TIME SUMMARY AT END OF TIME STEP   25 IN STRESS PERIOD    3
                    SECONDS     MINUTES      HOURS       DAYS        YEARS
                    -----------------------------------------------------------
   TIME STEP LENGTH  86400.      1440.0      24.000      1.0000     2.73785E-03
 STRESS PERIOD TIME 2.16000E+06  36000.      600.00      25.000     6.84463E-02
         TOTAL TIME 1.08864E+07 1.81440E+05  3024.0      126.00     0.34497    
1
 
 SOLVING FOR HEAD 

 OUTPUT CONTROL FOR STRESS PERIOD    3   TIME STEP   26
    SAVE HEAD FOR ALL LAYERS
    SAVE DRAWDOWN FOR ALL LAYERS
    SAVE BUDGET
    PRINT HEAD FOR ALL LAYERS
    PRINT BUDGET
 UBDSV1 SAVING "         STORAGE" ON UNIT  53 AT TIME STEP 26, STRESS PERIOD   3
 UBDSV2 SAVING "   CONSTANT HEAD" ON UNIT  53 AT TIME STEP 26, STRESS PERIOD   3
 UBDSV1 SAVING "FLOW RIGHT FACE " ON UNIT  53 AT TIME STEP 26, STRESS PERIOD   3
 UBDSV1 SAVING "FLOW FRONT FACE " ON UNIT  53 AT TIME STEP 26, STRESS PERIOD   3
 UBDSV1 SAVING "FLOW LOWER FACE " ON UNIT  53 AT TIME STEP 26, STRESS PERIOD   3
1
              HEAD IN LAYER   1 AT END OF TIME STEP  26 IN STRESS PERIOD    3
  ---------------------------------------------------------------------------

            1           2           3           4           5           6           7           8           9          10
 ........................................................................................................................
   1    9.999       9.755       9.441       8.985       8.318       7.374       6.083       4.405       2.355      3.4123E-03
   2    9.999       9.750       9.426       8.953       8.270       7.342       6.069       4.400       2.353      3.4098E-03
   3    9.999       9.737       9.384       8.849       8.089       7.237       6.026       4.386       2.349      3.4038E-03
   4    9.999       9.714       9.298       8.585       7.470       6.968       5.937       4.361       2.343      3.3939E-03
   5    9.999       9.693       9.202       8.142       4.838       6.508       5.836       4.338       2.339      3.3865E-03
   6    9.999       9.714       9.298       8.585       7.471       6.968       5.937       4.361       2.343      3.3939E-03
   7    9.999       9.737       9.384       8.849       8.089       7.237       6.026       4.386       2.349      3.4038E-03
   8    9.999       9.751       9.427       8.954       8.271       7.343       6.069       4.400       2.353      3.4099E-03
   9    9.999       9.756       9.443       8.989       8.322       7.378       6.085       4.406       2.355      3.4127E-03
  10    9.999       9.758       9.448       8.998       8.335       7.387       6.090       4.408       2.356      3.4136E-03
1
              HEAD IN LAYER   2 AT END OF TIME STEP  26 IN STRESS PERIOD    3
  ---------------------------------------------------------------------------

            1           2           3           4           5           6           7           8           9          10
 ........................................................................................................................
   1    9.999       9.750       9.431       8.970       8.298       7.352       6.061       4.386       2.341      6.4555E-03
   2    9.999       9.745       9.415       8.936       8.247       7.318       6.045       4.380       2.339      6.4508E-03
   3    9.999       9.731       9.370       8.825       8.058       7.207       5.999       4.365       2.335      6.4394E-03
   4    9.999       9.706       9.279       8.552       7.431       6.929       5.906       4.338       2.329      6.4210E-03
   5    9.999       9.684       9.179       8.105       5.251       6.469       5.802       4.314       2.324      6.4075E-03
   6    9.999       9.706       9.279       8.552       7.432       6.929       5.906       4.338       2.329      6.4210E-03
   7    9.999       9.731       9.370       8.826       8.059       7.207       6.000       4.365       2.335      6.4394E-03
   8    9.999       9.745       9.416       8.937       8.248       7.319       6.046       4.380       2.339      6.4511E-03
   9    9.999       9.751       9.433       8.974       8.303       7.356       6.063       4.387       2.341      6.4564E-03
  10    9.999       9.753       9.439       8.984       8.317       7.366       6.068       4.389       2.342      6.4582E-03
1
              HEAD IN LAYER   3 AT END OF TIME STEP  26 IN STRESS PERIOD    3
  ---------------------------------------------------------------------------

            1           2           3           4           5           6           7           8           9          10
 ........................................................................................................................
   1    9.999       9.747       9.424       8.959       8.284       7.336       6.044       4.370       2.329      6.9095E-03
   2    9.999       9.741       9.407       8.923       8.231       7.300       6.027       4.363       2.327      6.9040E-03
   3    9.999       9.726       9.360       8.809       8.037       7.185       5.979       4.347       2.322      6.8909E-03
   4    9.999       9.700       9.265       8.529       7.409       6.900       5.882       4.319       2.315      6.8702E-03
   5    9.999       9.678       9.164       8.085       5.559       6.445       5.777       4.295       2.310      6.8551E-03
   6    9.999       9.700       9.266       8.529       7.409       6.900       5.882       4.319       2.315      6.8702E-03
   7    9.999       9.726       9.360       8.809       8.037       7.185       5.979       4.347       2.322      6.8910E-03
   8    9.999       9.742       9.408       8.924       8.232       7.301       6.028       4.364       2.327      6.9043E-03
   9    9.999       9.748       9.427       8.964       8.290       7.340       6.046       4.371       2.329      6.9105E-03
  10    9.999       9.750       9.432       8.975       8.305       7.351       6.052       4.373       2.330      6.9126E-03
1
              HEAD IN LAYER   4 AT END OF TIME STEP  26 IN STRESS PERIOD    3
  ---------------------------------------------------------------------------

            1           2           3           4           5           6           7           8           9          10
 ........................................................................................................................
   1    9.999       9.746       9.421       8.954       8.277       7.328       6.035       4.362       2.323      6.9428E-03
   2    9.999       9.740       9.404       8.917       8.223       7.291       6.018       4.355       2.321      6.9371E-03
   3    9.999       9.724       9.355       8.801       8.026       7.173       5.969       4.339       2.316      6.9235E-03
   4    9.999       9.697       9.259       8.518       7.400       6.886       5.871       4.310       2.309      6.9020E-03
   5    9.999       9.675       9.156       8.076       5.706       6.435       5.764       4.285       2.304      6.8865E-03
   6    9.999       9.697       9.259       8.518       7.400       6.886       5.871       4.310       2.309      6.9020E-03
   7    9.999       9.724       9.355       8.801       8.026       7.174       5.969       4.339       2.316      6.9236E-03
   8    9.999       9.740       9.404       8.918       8.224       7.292       6.019       4.355       2.321      6.9375E-03
   9    9.999       9.747       9.423       8.959       8.283       7.332       6.038       4.363       2.323      6.9439E-03
  10    9.999       9.749       9.429       8.970       8.298       7.343       6.044       4.365       2.324      6.9461E-03

 HEAD WILL BE SAVED ON UNIT   51 AT END OF TIME STEP   26, STRESS PERIOD    3

 DRAWDOWN WILL BE SAVED ON UNIT   52 AT END OF TIME STEP   26, STRESS PERIOD    3
1
  VOLUMETRIC BUDGET FOR ENTIRE MODEL AT END OF TIME STEP   26, STRESS PERIOD   3
  ------------------------------------------------------------------------------

     CUMULATIVE VOLUMES      L**3       RATES FOR THIS TIME STEP      L**3/T
     ------------------                 ------------------------

           IN:                                      IN:
           ---                                      ---
             STORAGE =      359819.2500               STORAGE =        1521.3914
       CONSTANT HEAD =           0.0000         CONSTANT HEAD =           0.0000
               WELLS =           0.0000                 WELLS =           0.0000
     HEAD DEP BOUNDS =        5624.5352       HEAD DEP BOUNDS =         161.6212

            TOTAL IN =      365443.7812              TOTAL IN =        1683.0126

          OUT:                                     OUT:
          ----                                     ----
             STORAGE =           0.0000               STORAGE =           0.0000
       CONSTANT HEAD =           0.0000         CONSTANT HEAD =           0.0000
               WELLS =       13000.0000                 WELLS =         500.0000
     HEAD DEP BOUNDS =      352445.0938       HEAD DEP BOUNDS =        1183.0192

           TOTAL OUT =      365445.0938             TOTAL OUT =        1683.0192

            IN - OUT =          -1.3125              IN - OUT =      -6.5918E-03

 PERCENT DISCREPANCY =          -0.00     PERCENT DISCREPANCY =          -0.00






         TIME SUMMARY AT END OF TIME STEP   26 IN STRESS PERIOD    3
                    SECONDS     MINUTES      HOURS       DAYS        YEARS
                    -----------------------------------------------------------
   TIME STEP LENGTH  86400.      1440.0      24.000      1.0000     2.73785E-03
 STRESS PERIOD TIME 2.24640E+06  37440.      624.00      26.000     7.11841E-02
         TOTAL TIME 1.09728E+07 1.82880E+05  3048.0      127.00     0.34771    
1
 
 SOLVING FOR HEAD 

 OUTPUT CONTROL FOR STRESS PERIOD    3   TIME STEP   27
    SAVE HEAD FOR ALL LAYERS
    SAVE DRAWDOWN FOR ALL LAYERS
    SAVE BUDGET
    PRINT HEAD FOR ALL LAYERS
    PRINT BUDGET
 UBDSV1 SAVING "         STORAGE" ON UNIT  53 AT TIME STEP 27, STRESS PERIOD   3
 UBDSV2 SAVING "   CONSTANT HEAD" ON UNIT  53 AT TIME STEP 27, STRESS PERIOD   3
 UBDSV1 SAVING "FLOW RIGHT FACE " ON UNIT  53 AT TIME STEP 27, STRESS PERIOD   3
 UBDSV1 SAVING "FLOW FRONT FACE " ON UNIT  53 AT TIME STEP 27, STRESS PERIOD   3
 UBDSV1 SAVING "FLOW LOWER FACE " ON UNIT  53 AT TIME STEP 27, STRESS PERIOD   3
1
              HEAD IN LAYER   1 AT END OF TIME STEP  27 IN STRESS PERIOD    3
  ---------------------------------------------------------------------------

            1           2           3           4           5           6           7           8           9          10
 ........................................................................................................................
   1    9.999       9.751       9.432       8.971       8.300       7.355       6.064       4.389       2.345      3.3974E-03
   2    9.999       9.746       9.416       8.937       8.249       7.321       6.048       4.384       2.344      3.3946E-03
   3    9.999       9.731       9.371       8.828       8.061       7.210       6.003       4.368       2.340      3.3879E-03
   4    9.999       9.706       9.281       8.555       7.430       6.931       5.909       4.341       2.333      3.3774E-03
   5    9.999       9.685       9.182       8.106       4.785       6.465       5.805       4.318       2.328      3.3695E-03
   6    9.999       9.707       9.281       8.555       7.430       6.931       5.909       4.341       2.333      3.3774E-03
   7    9.999       9.731       9.371       8.828       8.061       7.210       6.003       4.368       2.340      3.3880E-03
   8    9.999       9.746       9.417       8.938       8.251       7.321       6.049       4.384       2.344      3.3947E-03
   9    9.999       9.752       9.434       8.975       8.305       7.359       6.066       4.390       2.346      3.3978E-03
  10    9.999       9.754       9.440       8.986       8.319       7.369       6.071       4.392       2.346      3.3989E-03
1
              HEAD IN LAYER   2 AT END OF TIME STEP  27 IN STRESS PERIOD    3
  ---------------------------------------------------------------------------

            1           2           3           4           5           6           7           8           9          10
 ........................................................................................................................
   1    9.999       9.746       9.422       8.956       8.281       7.333       6.042       4.370       2.332      6.4298E-03
   2    9.999       9.740       9.405       8.920       8.227       7.296       6.025       4.364       2.330      6.4246E-03
   3    9.999       9.725       9.357       8.804       8.031       7.179       5.976       4.347       2.325      6.4120E-03
   4    9.999       9.698       9.261       8.522       7.392       6.893       5.878       4.318       2.318      6.3921E-03
   5    9.999       9.676       9.159       8.070       5.200       6.426       5.772       4.294       2.313      6.3777E-03
   6    9.999       9.698       9.261       8.522       7.392       6.893       5.878       4.318       2.318      6.3921E-03
   7    9.999       9.725       9.357       8.804       8.031       7.180       5.976       4.347       2.325      6.4120E-03
   8    9.999       9.740       9.406       8.921       8.228       7.297       6.025       4.364       2.330      6.4249E-03
   9    9.999       9.747       9.425       8.961       8.286       7.337       6.044       4.371       2.332      6.4308E-03
  10    9.999       9.749       9.430       8.972       8.301       7.348       6.050       4.373       2.333      6.4329E-03
1
              HEAD IN LAYER   3 AT END OF TIME STEP  27 IN STRESS PERIOD    3
  ---------------------------------------------------------------------------

            1           2           3           4           5           6           7           8           9          10
 ........................................................................................................................
   1    9.999       9.743       9.415       8.946       8.267       7.316       6.025       4.354       2.320      6.8823E-03
   2    9.999       9.736       9.397       8.907       8.210       7.278       6.007       4.347       2.318      6.8763E-03
   3    9.999       9.720       9.347       8.788       8.009       7.157       5.956       4.330       2.313      6.8619E-03
   4    9.999       9.692       9.248       8.500       7.370       6.864       5.855       4.300       2.305      6.8395E-03
   5    9.999       9.669       9.144       8.050       5.510       6.403       5.746       4.275       2.300      6.8234E-03
   6    9.999       9.692       9.248       8.500       7.370       6.864       5.855       4.300       2.305      6.8395E-03
   7    9.999       9.720       9.347       8.788       8.009       7.157       5.956       4.330       2.313      6.8620E-03
   8    9.999       9.737       9.398       8.909       8.212       7.279       6.007       4.347       2.318      6.8766E-03
   9    9.999       9.744       9.418       8.950       8.272       7.321       6.027       4.355       2.320      6.8835E-03
  10    9.999       9.746       9.424       8.962       8.289       7.333       6.034       4.358       2.321      6.8859E-03
1
              HEAD IN LAYER   4 AT END OF TIME STEP  27 IN STRESS PERIOD    3
  ---------------------------------------------------------------------------

            1           2           3           4           5           6           7           8           9          10
 ........................................................................................................................
   1    9.999       9.741       9.412       8.940       8.260       7.308       6.016       4.346       2.314      6.9156E-03
   2    9.999       9.735       9.393       8.901       8.202       7.269       5.998       4.339       2.311      6.9093E-03
   3    9.999       9.718       9.342       8.779       7.998       7.146       5.946       4.321       2.306      6.8944E-03
   4    9.999       9.690       9.242       8.488       7.361       6.850       5.843       4.290       2.299      6.8712E-03
   5    9.999       9.666       9.136       8.042       5.658       6.393       5.734       4.265       2.293      6.8547E-03
   6    9.999       9.690       9.242       8.488       7.361       6.850       5.843       4.290       2.299      6.8712E-03
   7    9.999       9.718       9.342       8.780       7.999       7.146       5.946       4.321       2.306      6.8945E-03
   8    9.999       9.735       9.394       8.902       8.204       7.270       5.998       4.339       2.312      6.9097E-03
   9    9.999       9.742       9.415       8.945       8.266       7.313       6.019       4.347       2.314      6.9168E-03
  10    9.999       9.745       9.421       8.958       8.282       7.325       6.025       4.350       2.315      6.9193E-03

 HEAD WILL BE SAVED ON UNIT   51 AT END OF TIME STEP   27, STRESS PERIOD    3

 DRAWDOWN WILL BE SAVED ON UNIT   52 AT END OF TIME STEP   27, STRESS PERIOD    3
1
  VOLUMETRIC BUDGET FOR ENTIRE MODEL AT END OF TIME STEP   27, STRESS PERIOD   3
  ------------------------------------------------------------------------------

     CUMULATIVE VOLUMES      L**3       RATES FOR THIS TIME STEP      L**3/T
     ------------------                 ------------------------

           IN:                                      IN:
           ---                                      ---
             STORAGE =      361332.1562               STORAGE =        1512.9194
       CONSTANT HEAD =           0.0000         CONSTANT HEAD =           0.0000
               WELLS =           0.0000                 WELLS =           0.0000
     HEAD DEP BOUNDS =        5789.5879       HEAD DEP BOUNDS =         165.0526

            TOTAL IN =      367121.7500              TOTAL IN =        1677.9720

          OUT:                                     OUT:
          ----                                     ----
             STORAGE =           0.0000               STORAGE =           0.0000
       CONSTANT HEAD =           0.0000         CONSTANT HEAD =           0.0000
               WELLS =       13500.0000                 WELLS =         500.0000
     HEAD DEP BOUNDS =      353623.0938       HEAD DEP BOUNDS =        1178.0010

           TOTAL OUT =      367123.0938             TOTAL OUT =        1678.0010

            IN - OUT =          -1.3438              IN - OUT =      -2.8931E-02

 PERCENT DISCREPANCY =          -0.00     PERCENT DISCREPANCY =          -0.00






         TIME SUMMARY AT END OF TIME STEP   27 IN STRESS PERIOD    3
                    SECONDS     MINUTES      HOURS       DAYS        YEARS
                    -----------------------------------------------------------
   TIME STEP LENGTH  86400.      1440.0      24.000      1.0000     2.73785E-03
 STRESS PERIOD TIME 2.33280E+06  38880.      648.00      27.000     7.39220E-02
         TOTAL TIME 1.10592E+07 1.84320E+05  3072.0      128.00     0.35044    
1
 
 SOLVING FOR HEAD 

 OUTPUT CONTROL FOR STRESS PERIOD    3   TIME STEP   28
    SAVE HEAD FOR ALL LAYERS
    SAVE DRAWDOWN FOR ALL LAYERS
    SAVE BUDGET
    PRINT HEAD FOR ALL LAYERS
    PRINT BUDGET
 UBDSV1 SAVING "         STORAGE" ON UNIT  53 AT TIME STEP 28, STRESS PERIOD   3
 UBDSV2 SAVING "   CONSTANT HEAD" ON UNIT  53 AT TIME STEP 28, STRESS PERIOD   3
 UBDSV1 SAVING "FLOW RIGHT FACE " ON UNIT  53 AT TIME STEP 28, STRESS PERIOD   3
 UBDSV1 SAVING "FLOW FRONT FACE " ON UNIT  53 AT TIME STEP 28, STRESS PERIOD   3
 UBDSV1 SAVING "FLOW LOWER FACE " ON UNIT  53 AT TIME STEP 28, STRESS PERIOD   3
1
              HEAD IN LAYER   1 AT END OF TIME STEP  28 IN STRESS PERIOD    3
  ---------------------------------------------------------------------------

            1           2           3           4           5           6           7           8           9          10
 ........................................................................................................................
   1    9.999       9.747       9.423       8.958       8.283       7.335       6.045       4.374       2.336      3.3828E-03
   2    9.999       9.741       9.406       8.921       8.229       7.299       6.028       4.367       2.334      3.3797E-03
   3    9.999       9.725       9.358       8.806       8.034       7.182       5.979       4.351       2.330      3.3725E-03
   4    9.999       9.699       9.263       8.526       7.391       6.895       5.881       4.322       2.322      3.3608E-03
   5    9.999       9.677       9.162       8.070       4.735       6.423       5.774       4.297       2.317      3.3524E-03
   6    9.999       9.699       9.263       8.526       7.391       6.895       5.881       4.322       2.322      3.3609E-03
   7    9.999       9.725       9.358       8.807       8.034       7.183       5.979       4.351       2.330      3.3725E-03
   8    9.999       9.741       9.407       8.923       8.230       7.300       6.028       4.367       2.334      3.3800E-03
   9    9.999       9.748       9.426       8.962       8.288       7.339       6.047       4.375       2.336      3.3833E-03
  10    9.999       9.750       9.431       8.973       8.303       7.351       6.053       4.377       2.337      3.3845E-03
1
              HEAD IN LAYER   2 AT END OF TIME STEP  28 IN STRESS PERIOD    3
  ---------------------------------------------------------------------------

            1           2           3           4           5           6           7           8           9          10
 ........................................................................................................................
   1    9.999       9.742       9.413       8.942       8.263       7.313       6.023       4.354       2.323      6.4044E-03
   2    9.999       9.735       9.394       8.904       8.206       7.274       6.004       4.347       2.320      6.3986E-03
   3    9.999       9.719       9.344       8.783       8.003       7.152       5.953       4.330       2.315      6.3847E-03
   4    9.999       9.691       9.244       8.493       7.354       6.857       5.851       4.299       2.308      6.3633E-03
   5    9.999       9.667       9.139       8.035       5.151       6.385       5.741       4.274       2.302      6.3480E-03
   6    9.999       9.691       9.244       8.493       7.354       6.857       5.851       4.299       2.308      6.3633E-03
   7    9.999       9.719       9.344       8.783       8.004       7.152       5.953       4.330       2.316      6.3848E-03
   8    9.999       9.735       9.395       8.905       8.207       7.275       6.005       4.348       2.321      6.3989E-03
   9    9.999       9.743       9.416       8.947       8.269       7.318       6.026       4.355       2.323      6.4055E-03
  10    9.999       9.745       9.422       8.960       8.285       7.330       6.032       4.358       2.324      6.4078E-03
1
              HEAD IN LAYER   3 AT END OF TIME STEP  28 IN STRESS PERIOD    3
  ---------------------------------------------------------------------------

            1           2           3           4           5           6           7           8           9          10
 ........................................................................................................................
   1    9.999       9.738       9.406       8.932       8.249       7.297       6.006       4.338       2.311      6.8554E-03
   2    9.999       9.731       9.387       8.891       8.190       7.256       5.986       4.331       2.308      6.8487E-03
   3    9.999       9.714       9.333       8.766       7.982       7.130       5.933       4.312       2.303      6.8330E-03
   4    9.999       9.685       9.231       8.470       7.332       6.829       5.827       4.281       2.295      6.8089E-03
   5    9.999       9.661       9.124       8.016       5.462       6.363       5.716       4.254       2.289      6.7919E-03
   6    9.999       9.685       9.231       8.471       7.332       6.829       5.827       4.281       2.295      6.8089E-03
   7    9.999       9.714       9.334       8.767       7.982       7.130       5.933       4.312       2.303      6.8331E-03
   8    9.999       9.732       9.387       8.893       8.191       7.257       5.987       4.331       2.308      6.8491E-03
   9    9.999       9.740       9.409       8.937       8.255       7.302       6.009       4.340       2.311      6.8567E-03
  10    9.999       9.742       9.416       8.950       8.273       7.315       6.016       4.343       2.312      6.8594E-03
1
              HEAD IN LAYER   4 AT END OF TIME STEP  28 IN STRESS PERIOD    3
  ---------------------------------------------------------------------------

            1           2           3           4           5           6           7           8           9          10
 ........................................................................................................................
   1    9.999       9.737       9.403       8.927       8.242       7.289       5.997       4.331       2.305      6.8886E-03
   2    9.999       9.730       9.383       8.885       8.182       7.247       5.977       4.323       2.302      6.8817E-03
   3    9.999       9.712       9.328       8.758       7.971       7.119       5.922       4.304       2.297      6.8654E-03
   4    9.999       9.682       9.224       8.459       7.323       6.815       5.816       4.271       2.288      6.8405E-03
   5    9.999       9.658       9.117       8.008       5.611       6.353       5.704       4.245       2.282      6.8230E-03
   6    9.999       9.682       9.224       8.459       7.323       6.815       5.816       4.271       2.288      6.8405E-03
   7    9.999       9.712       9.329       8.758       7.971       7.119       5.923       4.304       2.297      6.8655E-03
   8    9.999       9.730       9.384       8.886       8.183       7.249       5.978       4.323       2.302      6.8821E-03
   9    9.999       9.738       9.406       8.932       8.249       7.294       6.000       4.332       2.305      6.8900E-03
  10    9.999       9.741       9.413       8.945       8.266       7.307       6.007       4.335       2.306      6.8929E-03

 HEAD WILL BE SAVED ON UNIT   51 AT END OF TIME STEP   28, STRESS PERIOD    3

 DRAWDOWN WILL BE SAVED ON UNIT   52 AT END OF TIME STEP   28, STRESS PERIOD    3
1
  VOLUMETRIC BUDGET FOR ENTIRE MODEL AT END OF TIME STEP   28, STRESS PERIOD   3
  ------------------------------------------------------------------------------

     CUMULATIVE VOLUMES      L**3       RATES FOR THIS TIME STEP      L**3/T
     ------------------                 ------------------------

           IN:                                      IN:
           ---                                      ---
             STORAGE =      362836.6250               STORAGE =        1504.4788
       CONSTANT HEAD =           0.0000         CONSTANT HEAD =           0.0000
               WELLS =           0.0000                 WELLS =           0.0000
     HEAD DEP BOUNDS =        5958.1240       HEAD DEP BOUNDS =         168.5361

            TOTAL IN =      368794.7500              TOTAL IN =        1673.0149

          OUT:                                     OUT:
          ----                                     ----
             STORAGE =           0.0000               STORAGE =           0.0000
       CONSTANT HEAD =           0.0000         CONSTANT HEAD =           0.0000
               WELLS =       14000.0000                 WELLS =         500.0000
     HEAD DEP BOUNDS =      354796.1250       HEAD DEP BOUNDS =        1173.0201

           TOTAL OUT =      368796.1250             TOTAL OUT =        1673.0201

            IN - OUT =          -1.3750              IN - OUT =      -5.2490E-03

 PERCENT DISCREPANCY =          -0.00     PERCENT DISCREPANCY =          -0.00






         TIME SUMMARY AT END OF TIME STEP   28 IN STRESS PERIOD    3
                    SECONDS     MINUTES      HOURS       DAYS        YEARS
                    -----------------------------------------------------------
   TIME STEP LENGTH  86400.      1440.0      24.000      1.0000     2.73785E-03
 STRESS PERIOD TIME 2.41920E+06  40320.      672.00      28.000     7.66598E-02
         TOTAL TIME 1.11456E+07 1.85760E+05  3096.0      129.00     0.35318    
1
 
 SOLVING FOR HEAD 

 OUTPUT CONTROL FOR STRESS PERIOD    3   TIME STEP   29
    SAVE HEAD FOR ALL LAYERS
    SAVE DRAWDOWN FOR ALL LAYERS
    SAVE BUDGET
    PRINT HEAD FOR ALL LAYERS
    PRINT BUDGET
 UBDSV1 SAVING "         STORAGE" ON UNIT  53 AT TIME STEP 29, STRESS PERIOD   3
 UBDSV2 SAVING "   CONSTANT HEAD" ON UNIT  53 AT TIME STEP 29, STRESS PERIOD   3
 UBDSV1 SAVING "FLOW RIGHT FACE " ON UNIT  53 AT TIME STEP 29, STRESS PERIOD   3
 UBDSV1 SAVING "FLOW FRONT FACE " ON UNIT  53 AT TIME STEP 29, STRESS PERIOD   3
 UBDSV1 SAVING "FLOW LOWER FACE " ON UNIT  53 AT TIME STEP 29, STRESS PERIOD   3
1
              HEAD IN LAYER   1 AT END OF TIME STEP  29 IN STRESS PERIOD    3
  ---------------------------------------------------------------------------

            1           2           3           4           5           6           7           8           9          10
 ........................................................................................................................
   1    9.999       9.742       9.414       8.944       8.265       7.316       6.026       4.358       2.327      3.3682E-03
   2    9.999       9.736       9.396       8.905       8.208       7.277       6.007       4.351       2.325      3.3649E-03
   3    9.999       9.719       9.345       8.785       8.006       7.155       5.956       4.333       2.320      3.3568E-03
   4    9.999       9.691       9.246       8.497       7.352       6.860       5.854       4.303       2.312      3.3443E-03
   5    9.999       9.668       9.142       8.035       4.686       6.381       5.744       4.277       2.306      3.3356E-03
   6    9.999       9.691       9.246       8.497       7.352       6.860       5.854       4.303       2.312      3.3444E-03
   7    9.999       9.719       9.345       8.785       8.006       7.155       5.956       4.333       2.320      3.3568E-03
   8    9.999       9.736       9.396       8.907       8.210       7.278       6.008       4.351       2.325      3.3651E-03
   9    9.999       9.743       9.417       8.949       8.271       7.320       6.029       4.359       2.327      3.3690E-03
  10    9.999       9.746       9.423       8.961       8.287       7.333       6.035       4.362       2.328      3.3703E-03
1
              HEAD IN LAYER   2 AT END OF TIME STEP  29 IN STRESS PERIOD    3
  ---------------------------------------------------------------------------

            1           2           3           4           5           6           7           8           9          10
 ........................................................................................................................
   1    9.999       9.737       9.404       8.929       8.245       7.294       6.004       4.339       2.313      6.3791E-03
   2    9.999       9.730       9.384       8.887       8.185       7.252       5.984       4.331       2.311      6.3727E-03
   3    9.999       9.712       9.330       8.761       7.976       7.125       5.930       4.312       2.306      6.3576E-03
   4    9.999       9.683       9.227       8.464       7.316       6.822       5.823       4.280       2.297      6.3346E-03
   5    9.999       9.659       9.120       8.001       5.103       6.344       5.711       4.254       2.292      6.3184E-03
   6    9.999       9.683       9.227       8.464       7.316       6.822       5.823       4.280       2.297      6.3346E-03
   7    9.999       9.713       9.330       8.762       7.976       7.125       5.930       4.312       2.306      6.3577E-03
   8    9.999       9.731       9.385       8.889       8.187       7.254       5.985       4.332       2.311      6.3731E-03
   9    9.999       9.739       9.407       8.934       8.252       7.299       6.007       4.340       2.314      6.3804E-03
  10    9.999       9.741       9.414       8.947       8.269       7.312       6.014       4.343       2.315      6.3830E-03
1
              HEAD IN LAYER   3 AT END OF TIME STEP  29 IN STRESS PERIOD    3
  ---------------------------------------------------------------------------

            1           2           3           4           5           6           7           8           9          10
 ........................................................................................................................
   1    9.999       9.734       9.397       8.918       8.231       7.277       5.987       4.323       2.302      6.8287E-03
   2    9.999       9.726       9.376       8.875       8.169       7.234       5.966       4.315       2.299      6.8214E-03
   3    9.999       9.708       9.320       8.745       7.954       7.103       5.909       4.295       2.293      6.8043E-03
   4    9.999       9.677       9.214       8.442       7.295       6.794       5.800       4.261       2.285      6.7784E-03
   5    9.999       9.652       9.105       7.982       5.416       6.323       5.686       4.234       2.278      6.7605E-03
   6    9.999       9.677       9.214       8.442       7.295       6.794       5.800       4.261       2.285      6.7784E-03
   7    9.999       9.708       9.320       8.745       7.955       7.103       5.910       4.295       2.293      6.8044E-03
   8    9.999       9.727       9.377       8.877       8.171       7.236       5.967       4.315       2.299      6.8218E-03
   9    9.999       9.735       9.400       8.924       8.238       7.283       5.990       4.325       2.302      6.8302E-03
  10    9.999       9.738       9.408       8.938       8.257       7.297       5.998       4.328       2.303      6.8332E-03
1
              HEAD IN LAYER   4 AT END OF TIME STEP  29 IN STRESS PERIOD    3
  ---------------------------------------------------------------------------

            1           2           3           4           5           6           7           8           9          10
 ........................................................................................................................
   1    9.999       9.732       9.393       8.913       8.224       7.269       5.979       4.315       2.296      6.8619E-03
   2    9.999       9.725       9.372       8.869       8.161       7.225       5.957       4.307       2.293      6.8543E-03
   3    9.999       9.706       9.315       8.737       7.944       7.092       5.899       4.286       2.287      6.8366E-03
   4    9.999       9.674       9.207       8.431       7.286       6.781       5.788       4.252       2.278      6.8099E-03
   5    9.999       9.649       9.097       7.974       5.565       6.313       5.674       4.225       2.272      6.7915E-03
   6    9.999       9.674       9.207       8.431       7.286       6.781       5.788       4.252       2.278      6.8099E-03
   7    9.999       9.706       9.315       8.737       7.944       7.092       5.899       4.286       2.287      6.8367E-03
   8    9.999       9.725       9.373       8.870       8.163       7.227       5.958       4.307       2.293      6.8548E-03
   9    9.999       9.734       9.397       8.919       8.231       7.275       5.982       4.317       2.296      6.8635E-03
  10    9.999       9.737       9.405       8.933       8.250       7.289       5.990       4.320       2.297      6.8667E-03

 HEAD WILL BE SAVED ON UNIT   51 AT END OF TIME STEP   29, STRESS PERIOD    3

 DRAWDOWN WILL BE SAVED ON UNIT   52 AT END OF TIME STEP   29, STRESS PERIOD    3
1
  VOLUMETRIC BUDGET FOR ENTIRE MODEL AT END OF TIME STEP   29, STRESS PERIOD   3
  ------------------------------------------------------------------------------

     CUMULATIVE VOLUMES      L**3       RATES FOR THIS TIME STEP      L**3/T
     ------------------                 ------------------------

           IN:                                      IN:
           ---                                      ---
             STORAGE =      364332.6562               STORAGE =        1496.0198
       CONSTANT HEAD =           0.0000         CONSTANT HEAD =           0.0000
               WELLS =           0.0000                 WELLS =           0.0000
     HEAD DEP BOUNDS =        6130.1709       HEAD DEP BOUNDS =         172.0471

            TOTAL IN =      370462.8125              TOTAL IN =        1668.0669

          OUT:                                     OUT:
          ----                                     ----
             STORAGE =           0.0000               STORAGE =           0.0000
       CONSTANT HEAD =           0.0000         CONSTANT HEAD =           0.0000
               WELLS =       14500.0000                 WELLS =         500.0000
     HEAD DEP BOUNDS =      355964.1875       HEAD DEP BOUNDS =        1168.0692

           TOTAL OUT =      370464.1875             TOTAL OUT =        1668.0692

            IN - OUT =          -1.3750              IN - OUT =      -2.3193E-03

 PERCENT DISCREPANCY =          -0.00     PERCENT DISCREPANCY =          -0.00






         TIME SUMMARY AT END OF TIME STEP   29 IN STRESS PERIOD    3
                    SECONDS     MINUTES      HOURS       DAYS        YEARS
                    -----------------------------------------------------------
   TIME STEP LENGTH  86400.      1440.0      24.000      1.0000     2.73785E-03
 STRESS PERIOD TIME 2.50560E+06  41760.      696.00      29.000     7.93977E-02
         TOTAL TIME 1.12320E+07 1.87200E+05  3120.0      130.00     0.35592    
1
 
 SOLVING FOR HEAD 

 OUTPUT CONTROL FOR STRESS PERIOD    3   TIME STEP   30
    SAVE HEAD FOR ALL LAYERS
    SAVE DRAWDOWN FOR ALL LAYERS
    SAVE BUDGET
    PRINT HEAD FOR ALL LAYERS
    PRINT BUDGET
 UBDSV1 SAVING "         STORAGE" ON UNIT  53 AT TIME STEP 30, STRESS PERIOD   3
 UBDSV2 SAVING "   CONSTANT HEAD" ON UNIT  53 AT TIME STEP 30, STRESS PERIOD   3
 UBDSV1 SAVING "FLOW RIGHT FACE " ON UNIT  53 AT TIME STEP 30, STRESS PERIOD   3
 UBDSV1 SAVING "FLOW FRONT FACE " ON UNIT  53 AT TIME STEP 30, STRESS PERIOD   3
 UBDSV1 SAVING "FLOW LOWER FACE " ON UNIT  53 AT TIME STEP 30, STRESS PERIOD   3
1
              HEAD IN LAYER   1 AT END OF TIME STEP  30 IN STRESS PERIOD    3
  ---------------------------------------------------------------------------

            1           2           3           4           5           6           7           8           9          10
 ........................................................................................................................
   1    9.999       9.738       9.405       8.930       8.247       7.296       6.007       4.342       2.318      3.3538E-03
   2    9.999       9.731       9.385       8.889       8.188       7.255       5.987       4.335       2.315      3.3500E-03
   3    9.999       9.713       9.332       8.764       7.979       7.128       5.933       4.316       2.310      3.3415E-03
   4    9.999       9.684       9.229       8.468       7.314       6.825       5.826       4.283       2.302      3.3281E-03
   5    9.999       9.660       9.122       8.001       4.638       6.340       5.714       4.257       2.296      3.3188E-03
   6    9.999       9.684       9.229       8.468       7.314       6.825       5.826       4.283       2.302      3.3281E-03
   7    9.999       9.713       9.332       8.764       7.979       7.128       5.933       4.316       2.310      3.3415E-03
   8    9.999       9.731       9.386       8.891       8.189       7.256       5.988       4.335       2.316      3.3504E-03
   9    9.999       9.739       9.408       8.936       8.254       7.301       6.010       4.344       2.318      3.3547E-03
  10    9.999       9.742       9.415       8.949       8.271       7.315       6.017       4.347       2.319      3.3561E-03
1
              HEAD IN LAYER   2 AT END OF TIME STEP  30 IN STRESS PERIOD    3
  ---------------------------------------------------------------------------

            1           2           3           4           5           6           7           8           9          10
 ........................................................................................................................
   1    9.999       9.733       9.395       8.915       8.228       7.274       5.985       4.323       2.304      6.3541E-03
   2    9.999       9.725       9.374       8.871       8.165       7.230       5.964       4.315       2.302      6.3471E-03
   3    9.999       9.706       9.317       8.740       7.949       7.098       5.906       4.295       2.296      6.3307E-03
   4    9.999       9.675       9.210       8.436       7.279       6.787       5.796       4.261       2.287      6.3060E-03
   5    9.999       9.650       9.100       7.967       5.056       6.305       5.681       4.233       2.281      6.2889E-03
   6    9.999       9.675       9.210       8.436       7.279       6.787       5.796       4.261       2.287      6.3060E-03
   7    9.999       9.706       9.317       8.740       7.949       7.098       5.907       4.295       2.296      6.3308E-03
   8    9.999       9.726       9.374       8.873       8.167       7.232       5.965       4.316       2.302      6.3475E-03
   9    9.999       9.734       9.398       8.921       8.235       7.280       5.988       4.325       2.305      6.3556E-03
  10    9.999       9.737       9.406       8.935       8.254       7.294       5.996       4.328       2.306      6.3585E-03
1
              HEAD IN LAYER   3 AT END OF TIME STEP  30 IN STRESS PERIOD    3
  ---------------------------------------------------------------------------

            1           2           3           4           5           6           7           8           9          10
 ........................................................................................................................
   1    9.999       9.729       9.388       8.904       8.213       7.258       5.968       4.308       2.293      6.8022E-03
   2    9.999       9.721       9.366       8.859       8.149       7.212       5.946       4.299       2.290      6.7942E-03
   3    9.999       9.702       9.307       8.724       7.927       7.076       5.886       4.278       2.284      6.7757E-03
   4    9.999       9.669       9.196       8.413       7.258       6.760       5.773       4.242       2.274      6.7481E-03
   5    9.999       9.644       9.085       7.949       5.371       6.283       5.657       4.214       2.268      6.7292E-03
   6    9.999       9.669       9.197       8.414       7.258       6.760       5.773       4.242       2.274      6.7481E-03
   7    9.999       9.702       9.307       8.724       7.928       7.076       5.886       4.278       2.284      6.7758E-03
   8    9.999       9.722       9.367       8.860       8.151       7.214       5.947       4.300       2.290      6.7947E-03
   9    9.999       9.731       9.391       8.910       8.221       7.264       5.972       4.309       2.293      6.8039E-03
  10    9.999       9.734       9.399       8.925       8.241       7.279       5.980       4.313       2.294      6.8073E-03
1
              HEAD IN LAYER   4 AT END OF TIME STEP  30 IN STRESS PERIOD    3
  ---------------------------------------------------------------------------

            1           2           3           4           5           6           7           8           9          10
 ........................................................................................................................
   1    9.999       9.728       9.384       8.899       8.206       7.250       5.960       4.300       2.287      6.8354E-03
   2    9.999       9.719       9.362       8.853       8.140       7.203       5.937       4.291       2.284      6.8271E-03
   3    9.999       9.699       9.302       8.715       7.917       7.065       5.876       4.269       2.278      6.8079E-03
   4    9.999       9.667       9.190       8.402       7.250       6.746       5.761       4.233       2.268      6.7795E-03
   5    9.999       9.641       9.078       7.942       5.521       6.274       5.644       4.205       2.261      6.7601E-03
   6    9.999       9.667       9.190       8.403       7.250       6.747       5.761       4.233       2.268      6.7795E-03
   7    9.999       9.699       9.302       8.716       7.917       7.065       5.876       4.269       2.278      6.8081E-03
   8    9.999       9.720       9.363       8.854       8.143       7.205       5.938       4.291       2.284      6.8276E-03
   9    9.999       9.729       9.388       8.905       8.214       7.256       5.964       4.302       2.287      6.8372E-03
  10    9.999       9.733       9.396       8.920       8.235       7.271       5.972       4.305       2.289      6.8407E-03

 HEAD WILL BE SAVED ON UNIT   51 AT END OF TIME STEP   30, STRESS PERIOD    3

 DRAWDOWN WILL BE SAVED ON UNIT   52 AT END OF TIME STEP   30, STRESS PERIOD    3
1
  VOLUMETRIC BUDGET FOR ENTIRE MODEL AT END OF TIME STEP   30, STRESS PERIOD   3
  ------------------------------------------------------------------------------

     CUMULATIVE VOLUMES      L**3       RATES FOR THIS TIME STEP      L**3/T
     ------------------                 ------------------------

           IN:                                      IN:
           ---                                      ---
             STORAGE =      365820.2188               STORAGE =        1487.5719
       CONSTANT HEAD =           0.0000         CONSTANT HEAD =           0.0000
               WELLS =           0.0000                 WELLS =           0.0000
     HEAD DEP BOUNDS =        6305.7651       HEAD DEP BOUNDS =         175.5943

            TOTAL IN =      372125.9688              TOTAL IN =        1663.1661

          OUT:                                     OUT:
          ----                                     ----
             STORAGE =           0.0000               STORAGE =           0.0000
       CONSTANT HEAD =           0.0000         CONSTANT HEAD =           0.0000
               WELLS =       15000.0000                 WELLS =         500.0000
     HEAD DEP BOUNDS =      357127.3438       HEAD DEP BOUNDS =        1163.1531

           TOTAL OUT =      372127.3438             TOTAL OUT =        1663.1531

            IN - OUT =          -1.3750              IN - OUT =       1.3062E-02

 PERCENT DISCREPANCY =          -0.00     PERCENT DISCREPANCY =           0.00






         TIME SUMMARY AT END OF TIME STEP   30 IN STRESS PERIOD    3
                    SECONDS     MINUTES      HOURS       DAYS        YEARS
                    -----------------------------------------------------------
   TIME STEP LENGTH  86400.      1440.0      24.000      1.0000     2.73785E-03
 STRESS PERIOD TIME 2.59200E+06  43200.      720.00      30.000     8.21355E-02
         TOTAL TIME 1.13184E+07 1.88640E+05  3144.0      131.00     0.35866    
1
 
 SOLVING FOR HEAD 

 OUTPUT CONTROL FOR STRESS PERIOD    3   TIME STEP   31
    SAVE HEAD FOR ALL LAYERS
    SAVE DRAWDOWN FOR ALL LAYERS
    SAVE BUDGET
    PRINT HEAD FOR ALL LAYERS
    PRINT BUDGET
 UBDSV1 SAVING "         STORAGE" ON UNIT  53 AT TIME STEP 31, STRESS PERIOD   3
 UBDSV2 SAVING "   CONSTANT HEAD" ON UNIT  53 AT TIME STEP 31, STRESS PERIOD   3
 UBDSV1 SAVING "FLOW RIGHT FACE " ON UNIT  53 AT TIME STEP 31, STRESS PERIOD   3
 UBDSV1 SAVING "FLOW FRONT FACE " ON UNIT  53 AT TIME STEP 31, STRESS PERIOD   3
 UBDSV1 SAVING "FLOW LOWER FACE " ON UNIT  53 AT TIME STEP 31, STRESS PERIOD   3
1
              HEAD IN LAYER   1 AT END OF TIME STEP  31 IN STRESS PERIOD    3
  ---------------------------------------------------------------------------

            1           2           3           4           5           6           7           8           9          10
 ........................................................................................................................
   1    9.999       9.733       9.396       8.916       8.230       7.277       5.988       4.327       2.309      3.3397E-03
   2    9.999       9.726       9.375       8.873       8.167       7.233       5.967       4.319       2.306      3.3356E-03
   3    9.999       9.707       9.318       8.743       7.952       7.101       5.909       4.298       2.300      3.3261E-03
   4    9.999       9.676       9.212       8.439       7.277       6.790       5.799       4.264       2.291      3.3118E-03
   5    9.999       9.651       9.103       7.968       4.592       6.301       5.684       4.237       2.285      3.3019E-03
   6    9.999       9.676       9.212       8.439       7.277       6.790       5.799       4.264       2.291      3.3118E-03
   7    9.999       9.707       9.319       8.743       7.952       7.101       5.910       4.298       2.300      3.3262E-03
   8    9.999       9.726       9.376       8.875       8.169       7.235       5.968       4.319       2.306      3.3358E-03
   9    9.999       9.735       9.399       8.922       8.237       7.282       5.992       4.329       2.309      3.3406E-03
  10    9.999       9.738       9.407       8.936       8.256       7.297       5.999       4.332       2.310      3.3422E-03
1
              HEAD IN LAYER   2 AT END OF TIME STEP  31 IN STRESS PERIOD    3
  ---------------------------------------------------------------------------

            1           2           3           4           5           6           7           8           9          10
 ........................................................................................................................
   1    9.999       9.728       9.385       8.901       8.210       7.255       5.966       4.308       2.296      6.3293E-03
   2    9.999       9.720       9.363       8.855       8.144       7.209       5.944       4.299       2.293      6.3216E-03
   3    9.999       9.700       9.303       8.719       7.922       7.071       5.883       4.277       2.286      6.3039E-03
   4    9.999       9.668       9.193       8.407       7.242       6.753       5.769       4.242       2.277      6.2775E-03
   5    9.999       9.642       9.081       7.935       5.011       6.266       5.652       4.213       2.270      6.2596E-03
   6    9.999       9.668       9.193       8.407       7.242       6.753       5.769       4.242       2.277      6.2776E-03
   7    9.999       9.700       9.304       8.719       7.922       7.071       5.883       4.278       2.286      6.3040E-03
   8    9.999       9.721       9.364       8.857       8.146       7.210       5.945       4.300       2.293      6.3221E-03
   9    9.999       9.730       9.389       8.907       8.218       7.261       5.970       4.310       2.296      6.3310E-03
  10    9.999       9.733       9.397       8.922       8.238       7.276       5.978       4.313       2.297      6.3342E-03
1
              HEAD IN LAYER   3 AT END OF TIME STEP  31 IN STRESS PERIOD    3
  ---------------------------------------------------------------------------

            1           2           3           4           5           6           7           8           9          10
 ........................................................................................................................
   1    9.999       9.725       9.378       8.890       8.196       7.238       5.950       4.293       2.284      6.7759E-03
   2    9.999       9.716       9.355       8.842       8.128       7.191       5.926       4.283       2.281      6.7672E-03
   3    9.999       9.695       9.293       8.702       7.901       7.049       5.863       4.260       2.274      6.7472E-03
   4    9.999       9.662       9.179       8.385       7.222       6.726       5.746       4.223       2.264      6.7178E-03
   5    9.999       9.635       9.066       7.917       5.327       6.245       5.627       4.194       2.257      6.6980E-03
   6    9.999       9.662       9.179       8.386       7.222       6.726       5.746       4.223       2.264      6.7179E-03
   7    9.999       9.695       9.293       8.703       7.901       7.049       5.863       4.260       2.274      6.7474E-03
   8    9.999       9.717       9.356       8.844       8.130       7.192       5.927       4.284       2.281      6.7678E-03
   9    9.999       9.727       9.382       8.897       8.204       7.245       5.954       4.294       2.284      6.7779E-03
  10    9.999       9.730       9.391       8.913       8.225       7.261       5.962       4.298       2.286      6.7816E-03
1
              HEAD IN LAYER   4 AT END OF TIME STEP  31 IN STRESS PERIOD    3
  ---------------------------------------------------------------------------

            1           2           3           4           5           6           7           8           9          10
 ........................................................................................................................
   1    9.999       9.723       9.375       8.885       8.189       7.230       5.941       4.285       2.278      6.8091E-03
   2    9.999       9.714       9.351       8.836       8.120       7.182       5.917       4.275       2.275      6.8000E-03
   3    9.999       9.693       9.288       8.694       7.890       7.038       5.853       4.252       2.268      6.7794E-03
   4    9.999       9.659       9.173       8.375       7.214       6.713       5.734       4.214       2.258      6.7491E-03
   5    9.999       9.632       9.059       7.910       5.478       6.236       5.615       4.185       2.251      6.7288E-03
   6    9.999       9.659       9.173       8.375       7.214       6.713       5.734       4.214       2.258      6.7492E-03
   7    9.999       9.693       9.288       8.695       7.891       7.038       5.853       4.252       2.268      6.7796E-03
   8    9.999       9.715       9.352       8.838       8.122       7.184       5.918       4.276       2.275      6.8007E-03
   9    9.999       9.725       9.379       8.892       8.197       7.237       5.945       4.287       2.279      6.8112E-03
  10    9.999       9.728       9.388       8.908       8.219       7.254       5.954       4.291       2.280      6.8150E-03

 HEAD WILL BE SAVED ON UNIT   51 AT END OF TIME STEP   31, STRESS PERIOD    3

 DRAWDOWN WILL BE SAVED ON UNIT   52 AT END OF TIME STEP   31, STRESS PERIOD    3
1
  VOLUMETRIC BUDGET FOR ENTIRE MODEL AT END OF TIME STEP   31, STRESS PERIOD   3
  ------------------------------------------------------------------------------

     CUMULATIVE VOLUMES      L**3       RATES FOR THIS TIME STEP      L**3/T
     ------------------                 ------------------------

           IN:                                      IN:
           ---                                      ---
             STORAGE =      367299.3438               STORAGE =        1479.1367
       CONSTANT HEAD =           0.0000         CONSTANT HEAD =           0.0000
               WELLS =           0.0000                 WELLS =           0.0000
     HEAD DEP BOUNDS =        6484.9116       HEAD DEP BOUNDS =         179.1463

            TOTAL IN =      373784.2500              TOTAL IN =        1658.2831

          OUT:                                     OUT:
          ----                                     ----
             STORAGE =           0.0000               STORAGE =           0.0000
       CONSTANT HEAD =           0.0000         CONSTANT HEAD =           0.0000
               WELLS =       15500.0000                 WELLS =         500.0000
     HEAD DEP BOUNDS =      358285.6250       HEAD DEP BOUNDS =        1158.2678

           TOTAL OUT =      373785.6250             TOTAL OUT =        1658.2678

            IN - OUT =          -1.3750              IN - OUT =       1.5259E-02

 PERCENT DISCREPANCY =          -0.00     PERCENT DISCREPANCY =           0.00






         TIME SUMMARY AT END OF TIME STEP   31 IN STRESS PERIOD    3
                    SECONDS     MINUTES      HOURS       DAYS        YEARS
                    -----------------------------------------------------------
   TIME STEP LENGTH  86400.      1440.0      24.000      1.0000     2.73785E-03
 STRESS PERIOD TIME 2.67840E+06  44640.      744.00      31.000     8.48734E-02
         TOTAL TIME 1.14048E+07 1.90080E+05  3168.0      132.00     0.36140    
1
 
 SOLVING FOR HEAD 

 OUTPUT CONTROL FOR STRESS PERIOD    3   TIME STEP   32
    SAVE HEAD FOR ALL LAYERS
    SAVE DRAWDOWN FOR ALL LAYERS
    SAVE BUDGET
    PRINT HEAD FOR ALL LAYERS
    PRINT BUDGET
 UBDSV1 SAVING "         STORAGE" ON UNIT  53 AT TIME STEP 32, STRESS PERIOD   3
 UBDSV2 SAVING "   CONSTANT HEAD" ON UNIT  53 AT TIME STEP 32, STRESS PERIOD   3
 UBDSV1 SAVING "FLOW RIGHT FACE " ON UNIT  53 AT TIME STEP 32, STRESS PERIOD   3
 UBDSV1 SAVING "FLOW FRONT FACE " ON UNIT  53 AT TIME STEP 32, STRESS PERIOD   3
 UBDSV1 SAVING "FLOW LOWER FACE " ON UNIT  53 AT TIME STEP 32, STRESS PERIOD   3
1
              HEAD IN LAYER   1 AT END OF TIME STEP  32 IN STRESS PERIOD    3
  ---------------------------------------------------------------------------

            1           2           3           4           5           6           7           8           9          10
 ........................................................................................................................
   1    9.999       9.729       9.386       8.902       8.212       7.257       5.969       4.312       2.300      3.3255E-03
   2    9.999       9.721       9.364       8.857       8.147       7.211       5.947       4.303       2.297      3.3211E-03
   3    9.999       9.701       9.305       8.721       7.925       7.074       5.886       4.281       2.291      3.3108E-03
   4    9.999       9.668       9.195       8.411       7.241       6.756       5.771       4.245       2.281      3.2957E-03
   5    9.999       9.643       9.084       7.935       4.547       6.261       5.654       4.216       2.274      3.2852E-03
   6    9.999       9.669       9.195       8.411       7.241       6.756       5.772       4.245       2.281      3.2957E-03
   7    9.999       9.701       9.305       8.722       7.925       7.074       5.886       4.281       2.291      3.3109E-03
   8    9.999       9.721       9.365       8.859       8.149       7.213       5.948       4.303       2.297      3.3214E-03
   9    9.999       9.730       9.390       8.909       8.220       7.263       5.973       4.313       2.300      3.3265E-03
  10    9.999       9.734       9.398       8.924       8.240       7.279       5.981       4.317       2.302      3.3284E-03
1
              HEAD IN LAYER   2 AT END OF TIME STEP  32 IN STRESS PERIOD    3
  ---------------------------------------------------------------------------

            1           2           3           4           5           6           7           8           9          10
 ........................................................................................................................
   1    9.999       9.724       9.376       8.887       8.192       7.235       5.948       4.293       2.287      6.3047E-03
   2    9.999       9.715       9.352       8.839       8.124       7.187       5.924       4.283       2.284      6.2963E-03
   3    9.999       9.694       9.290       8.698       7.895       7.044       5.860       4.260       2.277      6.2772E-03
   4    9.999       9.660       9.175       8.379       7.206       6.719       5.742       4.223       2.267      6.2492E-03
   5    9.999       9.633       9.062       7.903       4.967       6.227       5.623       4.193       2.260      6.2303E-03
   6    9.999       9.660       9.175       8.379       7.206       6.719       5.742       4.223       2.267      6.2493E-03
   7    9.999       9.694       9.290       8.698       7.896       7.044       5.860       4.260       2.277      6.2774E-03
   8    9.999       9.715       9.353       8.841       8.126       7.189       5.925       4.284       2.284      6.2969E-03
   9    9.999       9.725       9.380       8.894       8.201       7.242       5.952       4.295       2.287      6.3066E-03
  10    9.999       9.729       9.389       8.910       8.222       7.258       5.961       4.299       2.289      6.3102E-03
1
              HEAD IN LAYER   3 AT END OF TIME STEP  32 IN STRESS PERIOD    3
  ---------------------------------------------------------------------------

            1           2           3           4           5           6           7           8           9          10
 ........................................................................................................................
   1    9.999       9.720       9.369       8.876       8.178       7.219       5.931       4.277       2.275      6.7499E-03
   2    9.999       9.711       9.344       8.826       8.107       7.169       5.906       4.267       2.272      6.7404E-03
   3    9.999       9.689       9.280       8.681       7.874       7.022       5.840       4.243       2.265      6.7189E-03
   4    9.999       9.654       9.162       8.358       7.187       6.692       5.719       4.204       2.254      6.6877E-03
   5    9.999       9.627       9.047       7.885       5.284       6.207       5.598       4.174       2.247      6.6670E-03
   6    9.999       9.654       9.162       8.358       7.187       6.693       5.719       4.204       2.254      6.6878E-03
   7    9.999       9.689       9.280       8.682       7.874       7.023       5.840       4.243       2.265      6.7192E-03
   8    9.999       9.712       9.345       8.828       8.110       7.171       5.907       4.268       2.272      6.7411E-03
   9    9.999       9.722       9.373       8.883       8.187       7.226       5.935       4.279       2.276      6.7521E-03
  10    9.999       9.726       9.383       8.900       8.209       7.243       5.945       4.284       2.277      6.7562E-03
1
              HEAD IN LAYER   4 AT END OF TIME STEP  32 IN STRESS PERIOD    3
  ---------------------------------------------------------------------------

            1           2           3           4           5           6           7           8           9          10
 ........................................................................................................................
   1    9.999       9.718       9.365       8.870       8.171       7.211       5.923       4.270       2.269      6.7830E-03
   2    9.999       9.709       9.340       8.820       8.099       7.160       5.897       4.259       2.266      6.7732E-03
   3    9.999       9.687       9.274       8.673       7.863       7.011       5.830       4.235       2.258      6.7510E-03
   4    9.999       9.651       9.156       8.347       7.179       6.679       5.707       4.195       2.248      6.7189E-03
   5    9.999       9.624       9.040       7.878       5.436       6.199       5.586       4.165       2.241      6.6977E-03
   6    9.999       9.651       9.156       8.347       7.179       6.679       5.707       4.195       2.248      6.7190E-03
   7    9.999       9.687       9.275       8.673       7.864       7.012       5.830       4.235       2.259      6.7512E-03
   8    9.999       9.710       9.341       8.822       8.102       7.162       5.898       4.260       2.266      6.7739E-03
   9    9.999       9.720       9.370       8.878       8.180       7.218       5.927       4.272       2.270      6.7853E-03
  10    9.999       9.724       9.380       8.896       8.203       7.236       5.937       4.276       2.271      6.7896E-03

 HEAD WILL BE SAVED ON UNIT   51 AT END OF TIME STEP   32, STRESS PERIOD    3

 DRAWDOWN WILL BE SAVED ON UNIT   52 AT END OF TIME STEP   32, STRESS PERIOD    3
1
  VOLUMETRIC BUDGET FOR ENTIRE MODEL AT END OF TIME STEP   32, STRESS PERIOD   3
  ------------------------------------------------------------------------------

     CUMULATIVE VOLUMES      L**3       RATES FOR THIS TIME STEP      L**3/T
     ------------------                 ------------------------

           IN:                                      IN:
           ---                                      ---
             STORAGE =      368770.0625               STORAGE =        1470.7152
       CONSTANT HEAD =           0.0000         CONSTANT HEAD =           0.0000
               WELLS =           0.0000                 WELLS =           0.0000
     HEAD DEP BOUNDS =        6667.6343       HEAD DEP BOUNDS =         182.7228

            TOTAL IN =      375437.6875              TOTAL IN =        1653.4380

          OUT:                                     OUT:
          ----                                     ----
             STORAGE =           0.0000               STORAGE =           0.0000
       CONSTANT HEAD =           0.0000         CONSTANT HEAD =           0.0000
               WELLS =       16000.0000                 WELLS =         500.0000
     HEAD DEP BOUNDS =      359439.0312       HEAD DEP BOUNDS =        1153.4127

           TOTAL OUT =      375439.0312             TOTAL OUT =        1653.4127

            IN - OUT =          -1.3438              IN - OUT =       2.5269E-02

 PERCENT DISCREPANCY =          -0.00     PERCENT DISCREPANCY =           0.00






         TIME SUMMARY AT END OF TIME STEP   32 IN STRESS PERIOD    3
                    SECONDS     MINUTES      HOURS       DAYS        YEARS
                    -----------------------------------------------------------
   TIME STEP LENGTH  86400.      1440.0      24.000      1.0000     2.73785E-03
 STRESS PERIOD TIME 2.76480E+06  46080.      768.00      32.000     8.76112E-02
         TOTAL TIME 1.14912E+07 1.91520E+05  3192.0      133.00     0.36413    
1
 
 SOLVING FOR HEAD 

 OUTPUT CONTROL FOR STRESS PERIOD    3   TIME STEP   33
    SAVE HEAD FOR ALL LAYERS
    SAVE DRAWDOWN FOR ALL LAYERS
    SAVE BUDGET
    PRINT HEAD FOR ALL LAYERS
    PRINT BUDGET
 UBDSV1 SAVING "         STORAGE" ON UNIT  53 AT TIME STEP 33, STRESS PERIOD   3
 UBDSV2 SAVING "   CONSTANT HEAD" ON UNIT  53 AT TIME STEP 33, STRESS PERIOD   3
 UBDSV1 SAVING "FLOW RIGHT FACE " ON UNIT  53 AT TIME STEP 33, STRESS PERIOD   3
 UBDSV1 SAVING "FLOW FRONT FACE " ON UNIT  53 AT TIME STEP 33, STRESS PERIOD   3
 UBDSV1 SAVING "FLOW LOWER FACE " ON UNIT  53 AT TIME STEP 33, STRESS PERIOD   3
1
              HEAD IN LAYER   1 AT END OF TIME STEP  33 IN STRESS PERIOD    3
  ---------------------------------------------------------------------------

            1           2           3           4           5           6           7           8           9          10
 ........................................................................................................................
   1    9.999       9.724       9.377       8.888       8.194       7.238       5.951       4.296       2.291      3.3114E-03
   2    9.999       9.715       9.353       8.841       8.126       7.189       5.927       4.287       2.288      3.3065E-03
   3    9.999       9.694       9.291       8.700       7.898       7.047       5.863       4.264       2.281      3.2957E-03
   4    9.999       9.661       9.178       8.383       7.205       6.722       5.744       4.226       2.271      3.2795E-03
   5    9.999       9.634       9.064       7.903       4.503       6.223       5.625       4.196       2.264      3.2686E-03
   6    9.999       9.661       9.178       8.383       7.205       6.722       5.744       4.226       2.271      3.2795E-03
   7    9.999       9.695       9.292       8.701       7.898       7.047       5.863       4.264       2.281      3.2958E-03
   8    9.999       9.716       9.355       8.843       8.128       7.191       5.928       4.287       2.288      3.3070E-03
   9    9.999       9.726       9.381       8.895       8.203       7.245       5.955       4.298       2.292      3.3126E-03
  10    9.999       9.729       9.390       8.912       8.224       7.261       5.964       4.302       2.293      3.3146E-03
1
              HEAD IN LAYER   2 AT END OF TIME STEP  33 IN STRESS PERIOD    3
  ---------------------------------------------------------------------------

            1           2           3           4           5           6           7           8           9          10
 ........................................................................................................................
   1    9.999       9.719       9.367       8.873       8.174       7.216       5.929       4.278       2.278      6.2803E-03
   2    9.999       9.710       9.341       8.822       8.103       7.165       5.904       4.267       2.275      6.2712E-03
   3    9.999       9.687       9.276       8.676       7.868       7.017       5.837       4.243       2.267      6.2507E-03
   4    9.999       9.652       9.158       8.352       7.171       6.686       5.715       4.204       2.256      6.2210E-03
   5    9.999       9.625       9.043       7.871       4.924       6.190       5.593       4.173       2.249      6.2012E-03
   6    9.999       9.652       9.158       8.352       7.171       6.686       5.715       4.204       2.257      6.2210E-03
   7    9.999       9.688       9.277       8.677       7.869       7.018       5.837       4.243       2.267      6.2509E-03
   8    9.999       9.710       9.343       8.825       8.106       7.167       5.905       4.268       2.275      6.2719E-03
   9    9.999       9.721       9.371       8.880       8.183       7.223       5.934       4.280       2.279      6.2824E-03
  10    9.999       9.725       9.381       8.898       8.206       7.240       5.943       4.284       2.280      6.2864E-03
1
              HEAD IN LAYER   3 AT END OF TIME STEP  33 IN STRESS PERIOD    3
  ---------------------------------------------------------------------------

            1           2           3           4           5           6           7           8           9          10
 ........................................................................................................................
   1    9.999       9.716       9.360       8.862       8.160       7.199       5.912       4.262       2.266      6.7241E-03
   2    9.999       9.706       9.333       8.810       8.087       7.147       5.886       4.252       2.263      6.7138E-03
   3    9.999       9.683       9.266       8.660       7.847       6.995       5.817       4.226       2.255      6.6908E-03
   4    9.999       9.646       9.145       8.330       7.152       6.659       5.692       4.185       2.244      6.6577E-03
   5    9.999       9.618       9.028       7.854       5.243       6.170       5.569       4.154       2.237      6.6360E-03
   6    9.999       9.646       9.145       8.331       7.152       6.659       5.692       4.186       2.244      6.6578E-03
   7    9.999       9.683       9.266       8.661       7.848       6.996       5.817       4.226       2.255      6.6910E-03
   8    9.999       9.706       9.335       8.812       8.090       7.149       5.887       4.252       2.263      6.7146E-03
   9    9.999       9.718       9.364       8.870       8.170       7.207       5.917       4.265       2.267      6.7266E-03
  10    9.999       9.722       9.374       8.888       8.193       7.226       5.927       4.269       2.269      6.7311E-03
1
              HEAD IN LAYER   4 AT END OF TIME STEP  33 IN STRESS PERIOD    3
  ---------------------------------------------------------------------------

            1           2           3           4           5           6           7           8           9          10
 ........................................................................................................................
   1    9.999       9.714       9.356       8.856       8.153       7.191       5.904       4.255       2.261      6.7571E-03
   2    9.999       9.704       9.329       8.803       8.079       7.138       5.877       4.244       2.257      6.7465E-03
   3    9.999       9.680       9.261       8.652       7.837       6.985       5.807       4.217       2.249      6.7228E-03
   4    9.999       9.643       9.139       8.320       7.144       6.646       5.680       4.176       2.238      6.6888E-03
   5    9.999       9.615       9.021       7.847       5.395       6.162       5.557       4.145       2.230      6.6666E-03
   6    9.999       9.643       9.139       8.320       7.145       6.646       5.681       4.176       2.238      6.6889E-03
   7    9.999       9.680       9.261       8.652       7.838       6.985       5.807       4.218       2.249      6.7230E-03
   8    9.999       9.704       9.331       8.806       8.081       7.140       5.878       4.244       2.257      6.7473E-03
   9    9.999       9.716       9.361       8.865       8.163       7.200       5.909       4.257       2.261      6.7597E-03
  10    9.999       9.720       9.371       8.883       8.187       7.218       5.919       4.262       2.263      6.7644E-03

 HEAD WILL BE SAVED ON UNIT   51 AT END OF TIME STEP   33, STRESS PERIOD    3

 DRAWDOWN WILL BE SAVED ON UNIT   52 AT END OF TIME STEP   33, STRESS PERIOD    3
1
  VOLUMETRIC BUDGET FOR ENTIRE MODEL AT END OF TIME STEP   33, STRESS PERIOD   3
  ------------------------------------------------------------------------------

     CUMULATIVE VOLUMES      L**3       RATES FOR THIS TIME STEP      L**3/T
     ------------------                 ------------------------

           IN:                                      IN:
           ---                                      ---
             STORAGE =      370232.3438               STORAGE =        1462.2838
       CONSTANT HEAD =           0.0000         CONSTANT HEAD =           0.0000
               WELLS =           0.0000                 WELLS =           0.0000
     HEAD DEP BOUNDS =        6853.9502       HEAD DEP BOUNDS =         186.3158

            TOTAL IN =      377086.2812              TOTAL IN =        1648.5996

          OUT:                                     OUT:
          ----                                     ----
             STORAGE =           0.0000               STORAGE =           0.0000
       CONSTANT HEAD =           0.0000         CONSTANT HEAD =           0.0000
               WELLS =       16500.0000                 WELLS =         500.0000
     HEAD DEP BOUNDS =      360587.6250       HEAD DEP BOUNDS =        1148.5848

           TOTAL OUT =      377087.6250             TOTAL OUT =        1648.5848

            IN - OUT =          -1.3438              IN - OUT =       1.4771E-02

 PERCENT DISCREPANCY =          -0.00     PERCENT DISCREPANCY =           0.00






         TIME SUMMARY AT END OF TIME STEP   33 IN STRESS PERIOD    3
                    SECONDS     MINUTES      HOURS       DAYS        YEARS
                    -----------------------------------------------------------
   TIME STEP LENGTH  86400.      1440.0      24.000      1.0000     2.73785E-03
 STRESS PERIOD TIME 2.85120E+06  47520.      792.00      33.000     9.03491E-02
         TOTAL TIME 1.15776E+07 1.92960E+05  3216.0      134.00     0.36687    
1
 
 SOLVING FOR HEAD 

 OUTPUT CONTROL FOR STRESS PERIOD    3   TIME STEP   34
    SAVE HEAD FOR ALL LAYERS
    SAVE DRAWDOWN FOR ALL LAYERS
    SAVE BUDGET
    PRINT HEAD FOR ALL LAYERS
    PRINT BUDGET
 UBDSV1 SAVING "         STORAGE" ON UNIT  53 AT TIME STEP 34, STRESS PERIOD   3
 UBDSV2 SAVING "   CONSTANT HEAD" ON UNIT  53 AT TIME STEP 34, STRESS PERIOD   3
 UBDSV1 SAVING "FLOW RIGHT FACE " ON UNIT  53 AT TIME STEP 34, STRESS PERIOD   3
 UBDSV1 SAVING "FLOW FRONT FACE " ON UNIT  53 AT TIME STEP 34, STRESS PERIOD   3
 UBDSV1 SAVING "FLOW LOWER FACE " ON UNIT  53 AT TIME STEP 34, STRESS PERIOD   3
1
              HEAD IN LAYER   1 AT END OF TIME STEP  34 IN STRESS PERIOD    3
  ---------------------------------------------------------------------------

            1           2           3           4           5           6           7           8           9          10
 ........................................................................................................................
   1    9.999       9.720       9.368       8.874       8.176       7.218       5.932       4.281       2.282      3.2976E-03
   2    9.999       9.710       9.343       8.824       8.105       7.168       5.907       4.271       2.279      3.2923E-03
   3    9.999       9.688       9.278       8.679       7.871       7.020       5.840       4.246       2.271      3.2806E-03
   4    9.999       9.653       9.160       8.355       7.170       6.688       5.717       4.207       2.260      3.2634E-03
   5    9.999       9.626       9.045       7.872       4.461       6.185       5.596       4.176       2.253      3.2521E-03
   6    9.999       9.653       9.161       8.355       7.170       6.688       5.718       4.207       2.260      3.2634E-03
   7    9.999       9.688       9.278       8.680       7.872       7.021       5.840       4.247       2.271      3.2807E-03
   8    9.999       9.711       9.344       8.826       8.108       7.170       5.908       4.272       2.279      3.2928E-03
   9    9.999       9.722       9.372       8.882       8.186       7.226       5.937       4.283       2.283      3.2988E-03
  10    9.999       9.725       9.382       8.899       8.208       7.243       5.946       4.288       2.284      3.3012E-03
1
              HEAD IN LAYER   2 AT END OF TIME STEP  34 IN STRESS PERIOD    3
  ---------------------------------------------------------------------------

            1           2           3           4           5           6           7           8           9          10
 ........................................................................................................................
   1    9.999       9.714       9.357       8.858       8.156       7.196       5.910       4.263       2.269      6.2561E-03
   2    9.999       9.704       9.331       8.806       8.082       7.143       5.884       4.252       2.266      6.2462E-03
   3    9.999       9.681       9.263       8.655       7.842       6.991       5.814       4.226       2.258      6.2243E-03
   4    9.999       9.644       9.141       8.325       7.137       6.653       5.688       4.185       2.246      6.1928E-03
   5    9.999       9.616       9.024       7.840       4.882       6.152       5.565       4.154       2.239      6.1722E-03
   6    9.999       9.644       9.141       8.325       7.137       6.653       5.688       4.185       2.246      6.1929E-03
   7    9.999       9.681       9.263       8.656       7.843       6.991       5.814       4.226       2.258      6.2245E-03
   8    9.999       9.705       9.332       8.808       8.085       7.146       5.885       4.252       2.266      6.2470E-03
   9    9.999       9.717       9.362       8.867       8.166       7.204       5.915       4.265       2.270      6.2585E-03
  10    9.999       9.721       9.372       8.885       8.190       7.223       5.926       4.270       2.272      6.2628E-03
1
              HEAD IN LAYER   3 AT END OF TIME STEP  34 IN STRESS PERIOD    3
  ---------------------------------------------------------------------------

            1           2           3           4           5           6           7           8           9          10
 ........................................................................................................................
   1    9.999       9.711       9.350       8.848       8.142       7.180       5.894       4.247       2.258      6.6984E-03
   2    9.999       9.700       9.322       8.793       8.066       7.125       5.866       4.236       2.254      6.6874E-03
   3    9.999       9.676       9.252       8.639       7.821       6.969       5.794       4.209       2.246      6.6628E-03
   4    9.999       9.638       9.128       8.303       7.118       6.627       5.665       4.167       2.234      6.6279E-03
   5    9.999       9.610       9.009       7.824       5.202       6.133       5.541       4.135       2.226      6.6052E-03
   6    9.999       9.638       9.128       8.304       7.118       6.627       5.665       4.167       2.234      6.6279E-03
   7    9.999       9.676       9.253       8.640       7.822       6.970       5.795       4.209       2.246      6.6631E-03
   8    9.999       9.701       9.324       8.796       8.069       7.128       5.867       4.237       2.254      6.6883E-03
   9    9.999       9.713       9.355       8.856       8.153       7.189       5.899       4.250       2.259      6.7012E-03
  10    9.999       9.718       9.366       8.876       8.178       7.208       5.910       4.255       2.260      6.7061E-03
1
              HEAD IN LAYER   4 AT END OF TIME STEP  34 IN STRESS PERIOD    3
  ---------------------------------------------------------------------------

            1           2           3           4           5           6           7           8           9          10
 ........................................................................................................................
   1    9.999       9.709       9.346       8.842       8.135       7.172       5.886       4.240       2.252      6.7314E-03
   2    9.999       9.698       9.318       8.787       8.058       7.116       5.857       4.228       2.248      6.7200E-03
   3    9.999       9.674       9.247       8.631       7.811       6.958       5.784       4.200       2.240      6.6947E-03
   4    9.999       9.635       9.122       8.293       7.110       6.614       5.654       4.158       2.228      6.6589E-03
   5    9.999       9.606       9.002       7.817       5.355       6.125       5.529       4.125       2.220      6.6357E-03
   6    9.999       9.635       9.122       8.293       7.111       6.614       5.654       4.158       2.228      6.6589E-03
   7    9.999       9.674       9.248       8.632       7.812       6.959       5.785       4.201       2.240      6.6950E-03
   8    9.999       9.699       9.320       8.790       8.061       7.119       5.859       4.229       2.248      6.7209E-03
   9    9.999       9.711       9.352       8.851       8.146       7.181       5.891       4.242       2.253      6.7344E-03
  10    9.999       9.716       9.363       8.871       8.171       7.200       5.902       4.247       2.255      6.7395E-03

 HEAD WILL BE SAVED ON UNIT   51 AT END OF TIME STEP   34, STRESS PERIOD    3

 DRAWDOWN WILL BE SAVED ON UNIT   52 AT END OF TIME STEP   34, STRESS PERIOD    3
1
  VOLUMETRIC BUDGET FOR ENTIRE MODEL AT END OF TIME STEP   34, STRESS PERIOD   3
  ------------------------------------------------------------------------------

     CUMULATIVE VOLUMES      L**3       RATES FOR THIS TIME STEP      L**3/T
     ------------------                 ------------------------

           IN:                                      IN:
           ---                                      ---
             STORAGE =      371686.2188               STORAGE =        1453.8683
       CONSTANT HEAD =           0.0000         CONSTANT HEAD =           0.0000
               WELLS =           0.0000                 WELLS =           0.0000
     HEAD DEP BOUNDS =        7043.8687       HEAD DEP BOUNDS =         189.9185

            TOTAL IN =      378730.0938              TOTAL IN =        1643.7869

          OUT:                                     OUT:
          ----                                     ----
             STORAGE =           0.0000               STORAGE =           0.0000
       CONSTANT HEAD =           0.0000         CONSTANT HEAD =           0.0000
               WELLS =       17000.0000                 WELLS =         500.0000
     HEAD DEP BOUNDS =      361731.4062       HEAD DEP BOUNDS =        1143.7903

           TOTAL OUT =      378731.4062             TOTAL OUT =        1643.7903

            IN - OUT =          -1.3125              IN - OUT =      -3.4180E-03

 PERCENT DISCREPANCY =          -0.00     PERCENT DISCREPANCY =          -0.00






         TIME SUMMARY AT END OF TIME STEP   34 IN STRESS PERIOD    3
                    SECONDS     MINUTES      HOURS       DAYS        YEARS
                    -----------------------------------------------------------
   TIME STEP LENGTH  86400.      1440.0      24.000      1.0000     2.73785E-03
 STRESS PERIOD TIME 2.93760E+06  48960.      816.00      34.000     9.30869E-02
         TOTAL TIME 1.16640E+07 1.94400E+05  3240.0      135.00     0.36961    
1
 
 SOLVING FOR HEAD 

 OUTPUT CONTROL FOR STRESS PERIOD    3   TIME STEP   35
    SAVE HEAD FOR ALL LAYERS
    SAVE DRAWDOWN FOR ALL LAYERS
    SAVE BUDGET
    PRINT HEAD FOR ALL LAYERS
    PRINT BUDGET
 UBDSV1 SAVING "         STORAGE" ON UNIT  53 AT TIME STEP 35, STRESS PERIOD   3
 UBDSV2 SAVING "   CONSTANT HEAD" ON UNIT  53 AT TIME STEP 35, STRESS PERIOD   3
 UBDSV1 SAVING "FLOW RIGHT FACE " ON UNIT  53 AT TIME STEP 35, STRESS PERIOD   3
 UBDSV1 SAVING "FLOW FRONT FACE " ON UNIT  53 AT TIME STEP 35, STRESS PERIOD   3
 UBDSV1 SAVING "FLOW LOWER FACE " ON UNIT  53 AT TIME STEP 35, STRESS PERIOD   3
1
              HEAD IN LAYER   1 AT END OF TIME STEP  35 IN STRESS PERIOD    3
  ---------------------------------------------------------------------------

            1           2           3           4           5           6           7           8           9          10
 ........................................................................................................................
   1    9.999       9.715       9.358       8.860       8.158       7.199       5.913       4.266       2.273      3.2839E-03
   2    9.999       9.705       9.332       8.808       8.085       7.146       5.887       4.255       2.270      3.2781E-03
   3    9.999       9.682       9.264       8.658       7.845       6.993       5.817       4.229       2.262      3.2655E-03
   4    9.999       9.645       9.143       8.328       7.135       6.655       5.691       4.188       2.250      3.2475E-03
   5    9.999       9.617       9.027       7.841       4.419       6.148       5.567       4.157       2.243      3.2356E-03
   6    9.999       9.645       9.144       8.328       7.135       6.655       5.691       4.188       2.250      3.2475E-03
   7    9.999       9.682       9.265       8.659       7.845       6.994       5.817       4.229       2.262      3.2656E-03
   8    9.999       9.706       9.333       8.810       8.088       7.148       5.888       4.256       2.270      3.2786E-03
   9    9.999       9.717       9.363       8.868       8.168       7.207       5.918       4.269       2.274      3.2852E-03
  10    9.999       9.721       9.373       8.887       8.192       7.225       5.929       4.273       2.276      3.2878E-03
1
              HEAD IN LAYER   2 AT END OF TIME STEP  35 IN STRESS PERIOD    3
  ---------------------------------------------------------------------------

            1           2           3           4           5           6           7           8           9          10
 ........................................................................................................................
   1    9.999       9.710       9.348       8.844       8.138       7.177       5.892       4.248       2.260      6.2321E-03
   2    9.999       9.699       9.320       8.790       8.062       7.122       5.864       4.236       2.257      6.2215E-03
   3    9.999       9.674       9.249       8.634       7.816       6.964       5.791       4.209       2.248      6.1980E-03
   4    9.999       9.636       9.124       8.298       7.103       6.620       5.662       4.166       2.236      6.1649E-03
   5    9.999       9.608       9.005       7.810       4.841       6.116       5.536       4.134       2.229      6.1434E-03
   6    9.999       9.636       9.124       8.298       7.103       6.620       5.662       4.166       2.236      6.1649E-03
   7    9.999       9.675       9.250       8.635       7.816       6.965       5.792       4.209       2.248      6.1983E-03
   8    9.999       9.700       9.321       8.792       8.065       7.124       5.865       4.237       2.257      6.2223E-03
   9    9.999       9.712       9.353       8.853       8.149       7.186       5.897       4.250       2.261      6.2347E-03
  10    9.999       9.717       9.364       8.873       8.174       7.205       5.908       4.255       2.263      6.2395E-03
1
              HEAD IN LAYER   3 AT END OF TIME STEP  35 IN STRESS PERIOD    3
  ---------------------------------------------------------------------------

            1           2           3           4           5           6           7           8           9          10
 ........................................................................................................................
   1    9.999       9.706       9.340       8.833       8.124       7.161       5.875       4.233       2.249      6.6730E-03
   2    9.999       9.695       9.311       8.777       8.046       7.104       5.846       4.220       2.245      6.6611E-03
   3    9.999       9.670       9.239       8.618       7.795       6.943       5.771       4.192       2.236      6.6349E-03
   4    9.999       9.630       9.111       8.277       7.084       6.594       5.639       4.148       2.224      6.5981E-03
   5    9.999       9.601       8.991       7.793       5.162       6.097       5.512       4.115       2.216      6.5746E-03
   6    9.999       9.630       9.111       8.277       7.085       6.594       5.639       4.148       2.224      6.5982E-03
   7    9.999       9.670       9.239       8.619       7.796       6.943       5.772       4.192       2.236      6.6352E-03
   8    9.999       9.696       9.313       8.780       8.049       7.106       5.848       4.221       2.245      6.6621E-03
   9    9.999       9.709       9.346       8.843       8.136       7.170       5.881       4.235       2.250      6.6761E-03
  10    9.999       9.713       9.358       8.863       8.162       7.190       5.893       4.241       2.252      6.6814E-03
1
              HEAD IN LAYER   4 AT END OF TIME STEP  35 IN STRESS PERIOD    3
  ---------------------------------------------------------------------------

            1           2           3           4           5           6           7           8           9          10
 ........................................................................................................................
   1    9.999       9.704       9.337       8.828       8.117       7.152       5.867       4.225       2.243      6.7060E-03
   2    9.999       9.693       9.307       8.770       8.037       7.095       5.837       4.212       2.239      6.6937E-03
   3    9.999       9.667       9.234       8.610       7.785       6.932       5.761       4.183       2.230      6.6667E-03
   4    9.999       9.627       9.105       8.266       7.077       6.581       5.628       4.139       2.218      6.6290E-03
   5    9.999       9.598       8.983       7.787       5.315       6.090       5.501       4.106       2.210      6.6050E-03
   6    9.999       9.627       9.105       8.267       7.077       6.582       5.628       4.139       2.218      6.6291E-03
   7    9.999       9.667       9.234       8.611       7.786       6.933       5.762       4.184       2.230      6.6670E-03
   8    9.999       9.694       9.309       8.773       8.041       7.098       5.839       4.213       2.240      6.6947E-03
   9    9.999       9.707       9.343       8.838       8.129       7.162       5.873       4.228       2.245      6.7092E-03
  10    9.999       9.712       9.355       8.858       8.156       7.183       5.885       4.233       2.246      6.7148E-03

 HEAD WILL BE SAVED ON UNIT   51 AT END OF TIME STEP   35, STRESS PERIOD    3

 DRAWDOWN WILL BE SAVED ON UNIT   52 AT END OF TIME STEP   35, STRESS PERIOD    3
1
  VOLUMETRIC BUDGET FOR ENTIRE MODEL AT END OF TIME STEP   35, STRESS PERIOD   3
  ------------------------------------------------------------------------------

     CUMULATIVE VOLUMES      L**3       RATES FOR THIS TIME STEP      L**3/T
     ------------------                 ------------------------

           IN:                                      IN:
           ---                                      ---
             STORAGE =      373131.6875               STORAGE =        1445.4843
       CONSTANT HEAD =           0.0000         CONSTANT HEAD =           0.0000
               WELLS =           0.0000                 WELLS =           0.0000
     HEAD DEP BOUNDS =        7237.4189       HEAD DEP BOUNDS =         193.5503

            TOTAL IN =      380369.0938              TOTAL IN =        1639.0345

          OUT:                                     OUT:
          ----                                     ----
             STORAGE =           0.0000               STORAGE =           0.0000
       CONSTANT HEAD =           0.0000         CONSTANT HEAD =           0.0000
               WELLS =       17500.0000                 WELLS =         500.0000
     HEAD DEP BOUNDS =      362870.4375       HEAD DEP BOUNDS =        1139.0234

           TOTAL OUT =      380370.4375             TOTAL OUT =        1639.0234

            IN - OUT =          -1.3438              IN - OUT =       1.1108E-02

 PERCENT DISCREPANCY =          -0.00     PERCENT DISCREPANCY =           0.00






         TIME SUMMARY AT END OF TIME STEP   35 IN STRESS PERIOD    3
                    SECONDS     MINUTES      HOURS       DAYS        YEARS
                    -----------------------------------------------------------
   TIME STEP LENGTH  86400.      1440.0      24.000      1.0000     2.73785E-03
 STRESS PERIOD TIME 3.02400E+06  50400.      840.00      35.000     9.58248E-02
         TOTAL TIME 1.17504E+07 1.95840E+05  3264.0      136.00     0.37235    
1
 
 SOLVING FOR HEAD 

 OUTPUT CONTROL FOR STRESS PERIOD    3   TIME STEP   36
    SAVE HEAD FOR ALL LAYERS
    SAVE DRAWDOWN FOR ALL LAYERS
    SAVE BUDGET
    PRINT HEAD FOR ALL LAYERS
    PRINT BUDGET
 UBDSV1 SAVING "         STORAGE" ON UNIT  53 AT TIME STEP 36, STRESS PERIOD   3
 UBDSV2 SAVING "   CONSTANT HEAD" ON UNIT  53 AT TIME STEP 36, STRESS PERIOD   3
 UBDSV1 SAVING "FLOW RIGHT FACE " ON UNIT  53 AT TIME STEP 36, STRESS PERIOD   3
 UBDSV1 SAVING "FLOW FRONT FACE " ON UNIT  53 AT TIME STEP 36, STRESS PERIOD   3
 UBDSV1 SAVING "FLOW LOWER FACE " ON UNIT  53 AT TIME STEP 36, STRESS PERIOD   3
1
              HEAD IN LAYER   1 AT END OF TIME STEP  36 IN STRESS PERIOD    3
  ---------------------------------------------------------------------------

            1           2           3           4           5           6           7           8           9          10
 ........................................................................................................................
   1    9.999       9.710       9.349       8.846       8.141       7.179       5.895       4.251       2.265      3.2701E-03
   2    9.999       9.700       9.321       8.791       8.064       7.124       5.867       4.240       2.261      3.2640E-03
   3    9.999       9.675       9.251       8.637       7.818       6.967       5.794       4.212       2.252      3.2506E-03
   4    9.999       9.637       9.126       8.301       7.101       6.622       5.664       4.169       2.240      3.2315E-03
   5    9.999       9.609       9.008       7.811       4.378       6.112       5.538       4.137       2.232      3.2192E-03
   6    9.999       9.637       9.127       8.301       7.101       6.623       5.664       4.169       2.240      3.2315E-03
   7    9.999       9.676       9.251       8.638       7.819       6.968       5.795       4.212       2.252      3.2507E-03
   8    9.999       9.701       9.323       8.794       8.067       7.127       5.868       4.240       2.261      3.2645E-03
   9    9.999       9.713       9.354       8.855       8.151       7.188       5.900       4.254       2.266      3.2717E-03
  10    9.999       9.717       9.365       8.874       8.176       7.208       5.911       4.259       2.267      3.2745E-03
1
              HEAD IN LAYER   2 AT END OF TIME STEP  36 IN STRESS PERIOD    3
  ---------------------------------------------------------------------------

            1           2           3           4           5           6           7           8           9          10
 ........................................................................................................................
   1    9.999       9.705       9.338       8.830       8.121       7.157       5.874       4.233       2.252      6.2082E-03
   2    9.999       9.694       9.309       8.773       8.041       7.100       5.844       4.221       2.248      6.1968E-03
   3    9.999       9.668       9.236       8.613       7.790       6.938       5.768       4.192       2.239      6.1719E-03
   4    9.999       9.628       9.107       8.271       7.069       6.588       5.635       4.147       2.226      6.1370E-03
   5    9.999       9.599       8.987       7.780       4.801       6.080       5.508       4.114       2.218      6.1146E-03
   6    9.999       9.629       9.108       8.271       7.069       6.588       5.635       4.147       2.226      6.1370E-03
   7    9.999       9.668       9.236       8.614       7.791       6.939       5.769       4.192       2.239      6.1722E-03
   8    9.999       9.695       9.311       8.776       8.045       7.103       5.846       4.221       2.248      6.1978E-03
   9    9.999       9.708       9.344       8.840       8.132       7.167       5.879       4.236       2.253      6.2112E-03
  10    9.999       9.712       9.356       8.860       8.159       7.188       5.891       4.241       2.255      6.2163E-03
1
              HEAD IN LAYER   3 AT END OF TIME STEP  36 IN STRESS PERIOD    3
  ---------------------------------------------------------------------------

            1           2           3           4           5           6           7           8           9          10
 ........................................................................................................................
   1    9.999       9.701       9.331       8.819       8.106       7.141       5.857       4.218       2.241      6.6477E-03
   2    9.999       9.690       9.300       8.760       8.025       7.082       5.826       4.205       2.236      6.6350E-03
   3    9.999       9.663       9.225       8.597       7.769       6.916       5.749       4.175       2.227      6.6072E-03
   4    9.999       9.622       9.094       8.250       7.051       6.562       5.613       4.129       2.214      6.5685E-03
   5    9.999       9.593       8.972       7.764       5.123       6.062       5.484       4.096       2.206      6.5440E-03
   6    9.999       9.623       9.094       8.250       7.052       6.562       5.613       4.129       2.214      6.5686E-03
   7    9.999       9.663       9.226       8.598       7.770       6.917       5.749       4.175       2.227      6.6075E-03
   8    9.999       9.691       9.302       8.763       8.029       7.085       5.828       4.206       2.237      6.6361E-03
   9    9.999       9.704       9.337       8.829       8.119       7.151       5.863       4.221       2.242      6.6511E-03
  10    9.999       9.709       9.349       8.851       8.146       7.173       5.875       4.226       2.244      6.6570E-03
1
              HEAD IN LAYER   4 AT END OF TIME STEP  36 IN STRESS PERIOD    3
  ---------------------------------------------------------------------------

            1           2           3           4           5           6           7           8           9          10
 ........................................................................................................................
   1    9.999       9.700       9.327       8.813       8.099       7.133       5.849       4.210       2.235      6.6806E-03
   2    9.999       9.688       9.296       8.754       8.017       7.073       5.817       4.197       2.231      6.6675E-03
   3    9.999       9.661       9.220       8.589       7.759       6.906       5.739       4.167       2.221      6.6389E-03
   4    9.999       9.619       9.088       8.240       7.044       6.550       5.602       4.120       2.208      6.5993E-03
   5    9.999       9.589       8.965       7.758       5.277       6.054       5.473       4.086       2.199      6.5743E-03
   6    9.999       9.620       9.088       8.240       7.044       6.550       5.602       4.120       2.208      6.5994E-03
   7    9.999       9.661       9.220       8.590       7.760       6.907       5.739       4.167       2.221      6.6393E-03
   8    9.999       9.689       9.298       8.757       8.021       7.076       5.819       4.198       2.231      6.6687E-03
   9    9.999       9.702       9.334       8.824       8.112       7.144       5.855       4.213       2.236      6.6842E-03
  10    9.999       9.708       9.346       8.846       8.140       7.165       5.868       4.219       2.238      6.6902E-03

 HEAD WILL BE SAVED ON UNIT   51 AT END OF TIME STEP   36, STRESS PERIOD    3

 DRAWDOWN WILL BE SAVED ON UNIT   52 AT END OF TIME STEP   36, STRESS PERIOD    3
1
  VOLUMETRIC BUDGET FOR ENTIRE MODEL AT END OF TIME STEP   36, STRESS PERIOD   3
  ------------------------------------------------------------------------------

     CUMULATIVE VOLUMES      L**3       RATES FOR THIS TIME STEP      L**3/T
     ------------------                 ------------------------

           IN:                                      IN:
           ---                                      ---
             STORAGE =      374568.7812               STORAGE =        1437.0847
       CONSTANT HEAD =           0.0000         CONSTANT HEAD =           0.0000
               WELLS =           0.0000                 WELLS =           0.0000
     HEAD DEP BOUNDS =        7434.6167       HEAD DEP BOUNDS =         197.1980

            TOTAL IN =      382003.4062              TOTAL IN =        1634.2827

          OUT:                                     OUT:
          ----                                     ----
             STORAGE =           0.0000               STORAGE =           0.0000
       CONSTANT HEAD =           0.0000         CONSTANT HEAD =           0.0000
               WELLS =       18000.0000                 WELLS =         500.0000
     HEAD DEP BOUNDS =      364004.7188       HEAD DEP BOUNDS =        1134.2836

           TOTAL OUT =      382004.7188             TOTAL OUT =        1634.2836

            IN - OUT =          -1.3125              IN - OUT =      -8.5449E-04

 PERCENT DISCREPANCY =          -0.00     PERCENT DISCREPANCY =          -0.00






         TIME SUMMARY AT END OF TIME STEP   36 IN STRESS PERIOD    3
                    SECONDS     MINUTES      HOURS       DAYS        YEARS
                    -----------------------------------------------------------
   TIME STEP LENGTH  86400.      1440.0      24.000      1.0000     2.73785E-03
 STRESS PERIOD TIME 3.11040E+06  51840.      864.00      36.000     9.85626E-02
         TOTAL TIME 1.18368E+07 1.97280E+05  3288.0      137.00     0.37509    
1
 
 SOLVING FOR HEAD 

 OUTPUT CONTROL FOR STRESS PERIOD    3   TIME STEP   37
    SAVE HEAD FOR ALL LAYERS
    SAVE DRAWDOWN FOR ALL LAYERS
    SAVE BUDGET
    PRINT HEAD FOR ALL LAYERS
    PRINT BUDGET
 UBDSV1 SAVING "         STORAGE" ON UNIT  53 AT TIME STEP 37, STRESS PERIOD   3
 UBDSV2 SAVING "   CONSTANT HEAD" ON UNIT  53 AT TIME STEP 37, STRESS PERIOD   3
 UBDSV1 SAVING "FLOW RIGHT FACE " ON UNIT  53 AT TIME STEP 37, STRESS PERIOD   3
 UBDSV1 SAVING "FLOW FRONT FACE " ON UNIT  53 AT TIME STEP 37, STRESS PERIOD   3
 UBDSV1 SAVING "FLOW LOWER FACE " ON UNIT  53 AT TIME STEP 37, STRESS PERIOD   3
1
              HEAD IN LAYER   1 AT END OF TIME STEP  37 IN STRESS PERIOD    3
  ---------------------------------------------------------------------------

            1           2           3           4           5           6           7           8           9          10
 ........................................................................................................................
   1    9.999       9.706       9.339       8.832       8.123       7.160       5.876       4.236       2.256      3.2567E-03
   2    9.999       9.694       9.310       8.775       8.044       7.103       5.847       4.224       2.252      3.2502E-03
   3    9.999       9.669       9.237       8.616       7.792       6.941       5.771       4.195       2.243      3.2358E-03
   4    9.999       9.629       9.110       8.274       7.068       6.590       5.638       4.150       2.230      3.2157E-03
   5    9.999       9.600       8.989       7.781       4.339       6.076       5.510       4.117       2.222      3.2030E-03
   6    9.999       9.630       9.110       8.275       7.068       6.590       5.638       4.150       2.230      3.2157E-03
   7    9.999       9.669       9.238       8.617       7.793       6.941       5.772       4.195       2.243      3.2360E-03
   8    9.999       9.695       9.312       8.778       8.047       7.105       5.848       4.225       2.252      3.2507E-03
   9    9.999       9.708       9.345       8.841       8.134       7.169       5.882       4.239       2.257      3.2585E-03
  10    9.999       9.713       9.357       8.862       8.161       7.190       5.894       4.245       2.259      3.2615E-03
1
              HEAD IN LAYER   2 AT END OF TIME STEP  37 IN STRESS PERIOD    3
  ---------------------------------------------------------------------------

            1           2           3           4           5           6           7           8           9          10
 ........................................................................................................................
   1    9.999       9.700       9.328       8.816       8.103       7.138       5.855       4.218       2.243      6.1845E-03
   2    9.999       9.688       9.298       8.757       8.021       7.078       5.824       4.205       2.239      6.1724E-03
   3    9.999       9.661       9.222       8.593       7.764       6.912       5.746       4.175       2.229      6.1459E-03
   4    9.999       9.621       9.091       8.245       7.036       6.556       5.609       4.129       2.216      6.1092E-03
   5    9.999       9.591       8.968       7.751       4.762       6.045       5.480       4.095       2.208      6.0860E-03
   6    9.999       9.621       9.091       8.245       7.036       6.556       5.609       4.129       2.216      6.1093E-03
   7    9.999       9.662       9.222       8.594       7.765       6.913       5.746       4.175       2.230      6.1463E-03
   8    9.999       9.689       9.300       8.760       8.025       7.081       5.826       4.206       2.239      6.1735E-03
   9    9.999       9.703       9.335       8.826       8.115       7.148       5.862       4.221       2.245      6.1878E-03
  10    9.999       9.708       9.347       8.848       8.143       7.170       5.874       4.227       2.247      6.1934E-03
1
              HEAD IN LAYER   3 AT END OF TIME STEP  37 IN STRESS PERIOD    3
  ---------------------------------------------------------------------------

            1           2           3           4           5           6           7           8           9          10
 ........................................................................................................................
   1    9.999       9.697       9.321       8.805       8.088       7.122       5.839       4.203       2.232      6.6226E-03
   2    9.999       9.684       9.289       8.744       8.005       7.060       5.806       4.189       2.228      6.6090E-03
   3    9.999       9.657       9.211       8.576       7.743       6.890       5.726       4.158       2.218      6.5796E-03
   4    9.999       9.615       9.078       8.224       7.019       6.531       5.587       4.111       2.204      6.5391E-03
   5    9.999       9.584       8.954       7.735       5.085       6.027       5.457       4.076       2.195      6.5137E-03
   6    9.999       9.615       9.078       8.224       7.019       6.531       5.587       4.111       2.204      6.5392E-03
   7    9.999       9.657       9.212       8.577       7.744       6.891       5.727       4.158       2.218      6.5800E-03
   8    9.999       9.685       9.292       8.747       8.009       7.064       5.808       4.190       2.228      6.6103E-03
   9    9.999       9.700       9.328       8.816       8.102       7.133       5.845       4.206       2.233      6.6264E-03
  10    9.999       9.705       9.341       8.838       8.130       7.155       5.858       4.212       2.236      6.6327E-03
1
              HEAD IN LAYER   4 AT END OF TIME STEP  37 IN STRESS PERIOD    3
  ---------------------------------------------------------------------------

            1           2           3           4           5           6           7           8           9          10
 ........................................................................................................................
   1    9.999       9.695       9.317       8.799       8.081       7.114       5.830       4.196       2.227      6.6555E-03
   2    9.999       9.682       9.285       8.737       7.997       7.052       5.798       4.182       2.222      6.6415E-03
   3    9.999       9.654       9.206       8.568       7.733       6.880       5.716       4.150       2.212      6.6112E-03
   4    9.999       9.612       9.071       8.214       7.012       6.518       5.576       4.102       2.198      6.5697E-03
   5    9.999       9.581       8.947       7.729       5.239       6.020       5.445       4.067       2.189      6.5438E-03
   6    9.999       9.612       9.071       8.214       7.012       6.518       5.576       4.102       2.198      6.5698E-03
   7    9.999       9.654       9.207       8.569       7.734       6.881       5.717       4.150       2.212      6.6116E-03
   8    9.999       9.683       9.288       8.741       8.001       7.055       5.800       4.183       2.222      6.6428E-03
   9    9.999       9.698       9.324       8.810       8.095       7.125       5.837       4.199       2.228      6.6594E-03
  10    9.999       9.703       9.338       8.833       8.124       7.148       5.851       4.205       2.230      6.6660E-03

 HEAD WILL BE SAVED ON UNIT   51 AT END OF TIME STEP   37, STRESS PERIOD    3

 DRAWDOWN WILL BE SAVED ON UNIT   52 AT END OF TIME STEP   37, STRESS PERIOD    3
1
  VOLUMETRIC BUDGET FOR ENTIRE MODEL AT END OF TIME STEP   37, STRESS PERIOD   3
  ------------------------------------------------------------------------------

     CUMULATIVE VOLUMES      L**3       RATES FOR THIS TIME STEP      L**3/T
     ------------------                 ------------------------

           IN:                                      IN:
           ---                                      ---
             STORAGE =      375997.5000               STORAGE =        1428.7321
       CONSTANT HEAD =           0.0000         CONSTANT HEAD =           0.0000
               WELLS =           0.0000                 WELLS =           0.0000
     HEAD DEP BOUNDS =        7635.4736       HEAD DEP BOUNDS =         200.8567

            TOTAL IN =      383632.9688              TOTAL IN =        1629.5887

          OUT:                                     OUT:
          ----                                     ----
             STORAGE =           0.0000               STORAGE =           0.0000
       CONSTANT HEAD =           0.0000         CONSTANT HEAD =           0.0000
               WELLS =       18500.0000                 WELLS =         500.0000
     HEAD DEP BOUNDS =      365134.3125       HEAD DEP BOUNDS =        1129.5795

           TOTAL OUT =      383634.3125             TOTAL OUT =        1629.5795

            IN - OUT =          -1.3438              IN - OUT =       9.2773E-03

 PERCENT DISCREPANCY =          -0.00     PERCENT DISCREPANCY =           0.00






         TIME SUMMARY AT END OF TIME STEP   37 IN STRESS PERIOD    3
                    SECONDS     MINUTES      HOURS       DAYS        YEARS
                    -----------------------------------------------------------
   TIME STEP LENGTH  86400.      1440.0      24.000      1.0000     2.73785E-03
 STRESS PERIOD TIME 3.19680E+06  53280.      888.00      37.000     0.10130    
         TOTAL TIME 1.19232E+07 1.98720E+05  3312.0      138.00     0.37782    
1
 
 SOLVING FOR HEAD 

 OUTPUT CONTROL FOR STRESS PERIOD    3   TIME STEP   38
    SAVE HEAD FOR ALL LAYERS
    SAVE DRAWDOWN FOR ALL LAYERS
    SAVE BUDGET
    PRINT HEAD FOR ALL LAYERS
    PRINT BUDGET
 UBDSV1 SAVING "         STORAGE" ON UNIT  53 AT TIME STEP 38, STRESS PERIOD   3
 UBDSV2 SAVING "   CONSTANT HEAD" ON UNIT  53 AT TIME STEP 38, STRESS PERIOD   3
 UBDSV1 SAVING "FLOW RIGHT FACE " ON UNIT  53 AT TIME STEP 38, STRESS PERIOD   3
 UBDSV1 SAVING "FLOW FRONT FACE " ON UNIT  53 AT TIME STEP 38, STRESS PERIOD   3
 UBDSV1 SAVING "FLOW LOWER FACE " ON UNIT  53 AT TIME STEP 38, STRESS PERIOD   3
1
              HEAD IN LAYER   1 AT END OF TIME STEP  38 IN STRESS PERIOD    3
  ---------------------------------------------------------------------------

            1           2           3           4           5           6           7           8           9          10
 ........................................................................................................................
   1    9.999       9.701       9.330       8.817       8.105       7.140       5.858       4.222       2.247      3.2432E-03
   2    9.999       9.689       9.299       8.759       8.023       7.081       5.827       4.208       2.243      3.2362E-03
   3    9.999       9.662       9.224       8.595       7.767       6.914       5.749       4.178       2.233      3.2209E-03
   4    9.999       9.622       9.093       8.248       7.035       6.558       5.612       4.132       2.220      3.2000E-03
   5    9.999       9.592       8.971       7.751       4.300       6.041       5.482       4.098       2.212      3.1867E-03
   6    9.999       9.622       9.093       8.248       7.035       6.558       5.612       4.132       2.220      3.2000E-03
   7    9.999       9.663       9.224       8.596       7.768       6.915       5.749       4.178       2.234      3.2211E-03
   8    9.999       9.690       9.301       8.762       8.027       7.084       5.829       4.209       2.243      3.2369E-03
   9    9.999       9.704       9.336       8.828       8.117       7.151       5.864       4.225       2.249      3.2452E-03
  10    9.999       9.709       9.348       8.849       8.145       7.172       5.877       4.230       2.251      3.2484E-03
1
              HEAD IN LAYER   2 AT END OF TIME STEP  38 IN STRESS PERIOD    3
  ---------------------------------------------------------------------------

            1           2           3           4           5           6           7           8           9          10
 ........................................................................................................................
   1    9.999       9.695       9.319       8.801       8.085       7.119       5.837       4.203       2.235      6.1610E-03
   2    9.999       9.683       9.287       8.740       8.000       7.057       5.804       4.190       2.230      6.1480E-03
   3    9.999       9.655       9.208       8.572       7.738       6.886       5.723       4.158       2.220      6.1200E-03
   4    9.999       9.613       9.074       8.219       7.004       6.524       5.583       4.110       2.206      6.0816E-03
   5    9.999       9.582       8.950       7.722       4.724       6.010       5.452       4.075       2.198      6.0575E-03
   6    9.999       9.613       9.074       8.219       7.004       6.525       5.583       4.110       2.206      6.0817E-03
   7    9.999       9.655       9.209       8.573       7.739       6.887       5.724       4.158       2.220      6.1204E-03
   8    9.999       9.684       9.289       8.744       8.004       7.060       5.806       4.191       2.231      6.1493E-03
   9    9.999       9.698       9.326       8.813       8.098       7.130       5.844       4.207       2.236      6.1647E-03
  10    9.999       9.704       9.339       8.835       8.127       7.153       5.857       4.213       2.238      6.1707E-03
1
              HEAD IN LAYER   3 AT END OF TIME STEP  38 IN STRESS PERIOD    3
  ---------------------------------------------------------------------------

            1           2           3           4           5           6           7           8           9          10
 ........................................................................................................................
   1    9.999       9.692       9.311       8.790       8.071       7.102       5.820       4.188       2.224      6.5977E-03
   2    9.999       9.679       9.278       8.727       7.984       7.039       5.787       4.174       2.219      6.5832E-03
   3    9.999       9.650       9.198       8.556       7.718       6.865       5.703       4.141       2.208      6.5521E-03
   4    9.999       9.607       9.061       8.198       6.987       6.499       5.561       4.092       2.194      6.5097E-03
   5    9.999       9.576       8.936       7.706       5.048       5.993       5.429       4.057       2.185      6.4834E-03
   6    9.999       9.607       9.061       8.199       6.987       6.500       5.561       4.092       2.194      6.5098E-03
   7    9.999       9.650       9.198       8.557       7.719       6.866       5.704       4.142       2.209      6.5525E-03
   8    9.999       9.680       9.281       8.731       7.988       7.043       5.789       4.175       2.219      6.5846E-03
   9    9.999       9.695       9.319       8.802       8.085       7.114       5.828       4.192       2.225      6.6019E-03
  10    9.999       9.701       9.332       8.826       8.115       7.138       5.841       4.199       2.227      6.6087E-03
1
              HEAD IN LAYER   4 AT END OF TIME STEP  38 IN STRESS PERIOD    3
  ---------------------------------------------------------------------------

            1           2           3           4           5           6           7           8           9          10
 ........................................................................................................................
   1    9.999       9.690       9.308       8.785       8.063       7.094       5.812       4.181       2.218      6.6305E-03
   2    9.999       9.677       9.274       8.721       7.976       7.030       5.778       4.166       2.213      6.6156E-03
   3    9.999       9.647       9.193       8.548       7.708       6.854       5.694       4.133       2.203      6.5836E-03
   4    9.999       9.604       9.054       8.188       6.980       6.487       5.550       4.083       2.188      6.5403E-03
   5    9.999       9.572       8.929       7.700       5.203       5.986       5.418       4.048       2.179      6.5135E-03
   6    9.999       9.604       9.055       8.189       6.980       6.487       5.550       4.083       2.188      6.5404E-03
   7    9.999       9.648       9.193       8.549       7.709       6.855       5.694       4.133       2.203      6.5841E-03
   8    9.999       9.678       9.277       8.725       7.980       7.034       5.780       4.168       2.214      6.6171E-03
   9    9.999       9.693       9.315       8.797       8.078       7.106       5.820       4.185       2.220      6.6349E-03
  10    9.999       9.699       9.329       8.821       8.108       7.131       5.834       4.191       2.222      6.6419E-03

 HEAD WILL BE SAVED ON UNIT   51 AT END OF TIME STEP   38, STRESS PERIOD    3

 DRAWDOWN WILL BE SAVED ON UNIT   52 AT END OF TIME STEP   38, STRESS PERIOD    3
1
  VOLUMETRIC BUDGET FOR ENTIRE MODEL AT END OF TIME STEP   38, STRESS PERIOD   3
  ------------------------------------------------------------------------------

     CUMULATIVE VOLUMES      L**3       RATES FOR THIS TIME STEP      L**3/T
     ------------------                 ------------------------

           IN:                                      IN:
           ---                                      ---
             STORAGE =      377417.8750               STORAGE =        1420.3757
       CONSTANT HEAD =           0.0000         CONSTANT HEAD =           0.0000
               WELLS =           0.0000                 WELLS =           0.0000
     HEAD DEP BOUNDS =        7839.9854       HEAD DEP BOUNDS =         204.5115

            TOTAL IN =      385257.8750              TOTAL IN =        1624.8872

          OUT:                                     OUT:
          ----                                     ----
             STORAGE =           0.0000               STORAGE =           0.0000
       CONSTANT HEAD =           0.0000         CONSTANT HEAD =           0.0000
               WELLS =       19000.0000                 WELLS =         500.0000
     HEAD DEP BOUNDS =      366259.2188       HEAD DEP BOUNDS =        1124.8962

           TOTAL OUT =      385259.2188             TOTAL OUT =        1624.8962

            IN - OUT =          -1.3438              IN - OUT =      -9.0332E-03

 PERCENT DISCREPANCY =          -0.00     PERCENT DISCREPANCY =          -0.00






         TIME SUMMARY AT END OF TIME STEP   38 IN STRESS PERIOD    3
                    SECONDS     MINUTES      HOURS       DAYS        YEARS
                    -----------------------------------------------------------
   TIME STEP LENGTH  86400.      1440.0      24.000      1.0000     2.73785E-03
 STRESS PERIOD TIME 3.28320E+06  54720.      912.00      38.000     0.10404    
         TOTAL TIME 1.20096E+07 2.00160E+05  3336.0      139.00     0.38056    
1
 
 SOLVING FOR HEAD 

 OUTPUT CONTROL FOR STRESS PERIOD    3   TIME STEP   39
    SAVE HEAD FOR ALL LAYERS
    SAVE DRAWDOWN FOR ALL LAYERS
    SAVE BUDGET
    PRINT HEAD FOR ALL LAYERS
    PRINT BUDGET
 UBDSV1 SAVING "         STORAGE" ON UNIT  53 AT TIME STEP 39, STRESS PERIOD   3
 UBDSV2 SAVING "   CONSTANT HEAD" ON UNIT  53 AT TIME STEP 39, STRESS PERIOD   3
 UBDSV1 SAVING "FLOW RIGHT FACE " ON UNIT  53 AT TIME STEP 39, STRESS PERIOD   3
 UBDSV1 SAVING "FLOW FRONT FACE " ON UNIT  53 AT TIME STEP 39, STRESS PERIOD   3
 UBDSV1 SAVING "FLOW LOWER FACE " ON UNIT  53 AT TIME STEP 39, STRESS PERIOD   3
1
              HEAD IN LAYER   1 AT END OF TIME STEP  39 IN STRESS PERIOD    3
  ---------------------------------------------------------------------------

            1           2           3           4           5           6           7           8           9          10
 ........................................................................................................................
   1    9.999       9.696       9.320       8.803       8.087       7.121       5.840       4.207       2.239      3.2298E-03
   2    9.999       9.684       9.288       8.742       8.003       7.059       5.807       4.193       2.234      3.2223E-03
   3    9.999       9.656       9.210       8.574       7.741       6.889       5.726       4.161       2.224      3.2063E-03
   4    9.999       9.614       9.076       8.222       7.002       6.527       5.586       4.113       2.210      3.1842E-03
   5    9.999       9.583       8.953       7.722       4.262       6.006       5.454       4.078       2.201      3.1707E-03
   6    9.999       9.614       9.076       8.222       7.003       6.527       5.586       4.113       2.210      3.1843E-03
   7    9.999       9.656       9.211       8.575       7.742       6.889       5.727       4.161       2.224      3.2066E-03
   8    9.999       9.685       9.290       8.745       8.007       7.063       5.809       4.194       2.235      3.2230E-03
   9    9.999       9.699       9.327       8.814       8.100       7.132       5.847       4.210       2.240      3.2320E-03
  10    9.999       9.704       9.340       8.837       8.129       7.155       5.860       4.216       2.242      3.2354E-03
1
              HEAD IN LAYER   2 AT END OF TIME STEP  39 IN STRESS PERIOD    3
  ---------------------------------------------------------------------------

            1           2           3           4           5           6           7           8           9          10
 ........................................................................................................................
   1    9.999       9.691       9.309       8.787       8.067       7.099       5.819       4.189       2.227      6.1377E-03
   2    9.999       9.678       9.276       8.724       7.980       7.035       5.784       4.174       2.222      6.1238E-03
   3    9.999       9.648       9.195       8.551       7.713       6.860       5.701       4.141       2.211      6.0943E-03
   4    9.999       9.605       9.057       8.193       6.972       6.493       5.557       4.092       2.196      6.0541E-03
   5    9.999       9.574       8.932       7.693       4.687       5.976       5.425       4.056       2.187      6.0292E-03
   6    9.999       9.605       9.057       8.193       6.972       6.494       5.558       4.092       2.196      6.0542E-03
   7    9.999       9.649       9.195       8.552       7.714       6.861       5.701       4.141       2.211      6.0947E-03
   8    9.999       9.679       9.278       8.727       7.984       7.039       5.787       4.175       2.222      6.1252E-03
   9    9.999       9.694       9.317       8.799       8.081       7.111       5.826       4.193       2.228      6.1417E-03
  10    9.999       9.700       9.330       8.823       8.111       7.135       5.840       4.199       2.230      6.1482E-03
1
              HEAD IN LAYER   3 AT END OF TIME STEP  39 IN STRESS PERIOD    3
  ---------------------------------------------------------------------------

            1           2           3           4           5           6           7           8           9          10
 ........................................................................................................................
   1    9.999       9.687       9.302       8.776       8.053       7.083       5.802       4.174       2.215      6.5730E-03
   2    9.999       9.673       9.267       8.711       7.964       7.017       5.767       4.159       2.210      6.5576E-03
   3    9.999       9.643       9.184       8.535       7.692       6.839       5.681       4.124       2.199      6.5248E-03
   4    9.999       9.599       9.044       8.173       6.955       6.469       5.535       4.074       2.184      6.4805E-03
   5    9.999       9.567       8.918       7.678       5.011       5.959       5.402       4.038       2.175      6.4533E-03
   6    9.999       9.599       9.045       8.173       6.956       6.469       5.536       4.074       2.184      6.4806E-03
   7    9.999       9.644       9.185       8.536       7.694       6.840       5.682       4.125       2.199      6.5253E-03
   8    9.999       9.675       9.270       8.715       7.968       7.021       5.770       4.160       2.211      6.5591E-03
   9    9.999       9.690       9.309       8.788       8.068       7.096       5.810       4.178       2.217      6.5775E-03
  10    9.999       9.696       9.324       8.813       8.099       7.121       5.825       4.185       2.219      6.5849E-03
1
              HEAD IN LAYER   4 AT END OF TIME STEP  39 IN STRESS PERIOD    3
  ---------------------------------------------------------------------------

            1           2           3           4           5           6           7           8           9          10
 ........................................................................................................................
   1    9.999       9.685       9.298       8.770       8.045       7.075       5.794       4.167       2.210      6.6057E-03
   2    9.999       9.671       9.263       8.704       7.956       7.009       5.758       4.151       2.205      6.5899E-03
   3    9.999       9.641       9.179       8.527       7.682       6.828       5.671       4.116       2.193      6.5562E-03
   4    9.999       9.596       9.038       8.163       6.949       6.456       5.524       4.065       2.178      6.5110E-03
   5    9.999       9.564       8.911       7.672       5.166       5.952       5.390       4.029       2.169      6.4833E-03
   6    9.999       9.596       9.038       8.163       6.949       6.457       5.525       4.065       2.178      6.5111E-03
   7    9.999       9.641       9.180       8.528       7.684       6.830       5.672       4.117       2.194      6.5567E-03
   8    9.999       9.673       9.266       8.708       7.960       7.013       5.761       4.152       2.205      6.5915E-03
   9    9.999       9.689       9.306       8.783       8.061       7.088       5.802       4.171       2.212      6.6105E-03
  10    9.999       9.695       9.321       8.808       8.093       7.113       5.817       4.178       2.214      6.6181E-03

 HEAD WILL BE SAVED ON UNIT   51 AT END OF TIME STEP   39, STRESS PERIOD    3

 DRAWDOWN WILL BE SAVED ON UNIT   52 AT END OF TIME STEP   39, STRESS PERIOD    3
1
  VOLUMETRIC BUDGET FOR ENTIRE MODEL AT END OF TIME STEP   39, STRESS PERIOD   3
  ------------------------------------------------------------------------------

     CUMULATIVE VOLUMES      L**3       RATES FOR THIS TIME STEP      L**3/T
     ------------------                 ------------------------

           IN:                                      IN:
           ---                                      ---
             STORAGE =      378829.9062               STORAGE =        1412.0391
       CONSTANT HEAD =           0.0000         CONSTANT HEAD =           0.0000
               WELLS =           0.0000                 WELLS =           0.0000
     HEAD DEP BOUNDS =        8048.1738       HEAD DEP BOUNDS =         208.1887

            TOTAL IN =      386878.0938              TOTAL IN =        1620.2278

          OUT:                                     OUT:
          ----                                     ----
             STORAGE =           0.0000               STORAGE =           0.0000
       CONSTANT HEAD =           0.0000         CONSTANT HEAD =           0.0000
               WELLS =       19500.0000                 WELLS =         500.0000
     HEAD DEP BOUNDS =      367379.4688       HEAD DEP BOUNDS =        1120.2410

           TOTAL OUT =      386879.4688             TOTAL OUT =        1620.2410

            IN - OUT =          -1.3750              IN - OUT =      -1.3184E-02

 PERCENT DISCREPANCY =          -0.00     PERCENT DISCREPANCY =          -0.00






         TIME SUMMARY AT END OF TIME STEP   39 IN STRESS PERIOD    3
                    SECONDS     MINUTES      HOURS       DAYS        YEARS
                    -----------------------------------------------------------
   TIME STEP LENGTH  86400.      1440.0      24.000      1.0000     2.73785E-03
 STRESS PERIOD TIME 3.36960E+06  56160.      936.00      39.000     0.10678    
         TOTAL TIME 1.20960E+07 2.01600E+05  3360.0      140.00     0.38330    
1
 
 SOLVING FOR HEAD 

 OUTPUT CONTROL FOR STRESS PERIOD    3   TIME STEP   40
    SAVE HEAD FOR ALL LAYERS
    SAVE DRAWDOWN FOR ALL LAYERS
    SAVE BUDGET
    PRINT HEAD FOR ALL LAYERS
    PRINT BUDGET
 UBDSV1 SAVING "         STORAGE" ON UNIT  53 AT TIME STEP 40, STRESS PERIOD   3
 UBDSV2 SAVING "   CONSTANT HEAD" ON UNIT  53 AT TIME STEP 40, STRESS PERIOD   3
 UBDSV1 SAVING "FLOW RIGHT FACE " ON UNIT  53 AT TIME STEP 40, STRESS PERIOD   3
 UBDSV1 SAVING "FLOW FRONT FACE " ON UNIT  53 AT TIME STEP 40, STRESS PERIOD   3
 UBDSV1 SAVING "FLOW LOWER FACE " ON UNIT  53 AT TIME STEP 40, STRESS PERIOD   3
1
              HEAD IN LAYER   1 AT END OF TIME STEP  40 IN STRESS PERIOD    3
  ---------------------------------------------------------------------------

            1           2           3           4           5           6           7           8           9          10
 ........................................................................................................................
   1    9.999       9.691       9.310       8.789       8.069       7.102       5.821       4.192       2.230      3.2167E-03
   2    9.999       9.678       9.277       8.726       7.982       7.038       5.787       4.177       2.225      3.2087E-03
   3    9.999       9.649       9.196       8.554       7.715       6.863       5.703       4.144       2.215      3.1917E-03
   4    9.999       9.606       9.059       8.196       6.971       6.495       5.560       4.095       2.200      3.1688E-03
   5    9.999       9.575       8.934       7.694       4.225       5.972       5.427       4.059       2.191      3.1545E-03
   6    9.999       9.606       9.060       8.197       6.971       6.496       5.560       4.095       2.200      3.1688E-03
   7    9.999       9.650       9.197       8.555       7.717       6.864       5.704       4.145       2.215      3.1919E-03
   8    9.999       9.679       9.279       8.729       7.987       7.041       5.790       4.179       2.226      3.2095E-03
   9    9.999       9.694       9.318       8.801       8.083       7.114       5.829       4.196       2.232      3.2190E-03
  10    9.999       9.700       9.331       8.824       8.113       7.138       5.843       4.202       2.234      3.2227E-03
1
              HEAD IN LAYER   2 AT END OF TIME STEP  40 IN STRESS PERIOD    3
  ---------------------------------------------------------------------------

            1           2           3           4           5           6           7           8           9          10
 ........................................................................................................................
   1    9.999       9.686       9.299       8.773       8.049       7.080       5.800       4.174       2.218      6.1145E-03
   2    9.999       9.672       9.265       8.707       7.960       7.014       5.765       4.159       2.213      6.0998E-03
   3    9.999       9.642       9.181       8.531       7.687       6.834       5.678       4.124       2.202      6.0687E-03
   4    9.999       9.597       9.041       8.168       6.940       6.463       5.532       4.073       2.187      6.0267E-03
   5    9.999       9.565       8.914       7.665       4.650       5.943       5.397       4.037       2.177      6.0010E-03
   6    9.999       9.597       9.041       8.168       6.941       6.463       5.532       4.073       2.187      6.0269E-03
   7    9.999       9.642       9.182       8.532       7.689       6.836       5.679       4.125       2.202      6.0691E-03
   8    9.999       9.673       9.267       8.711       7.964       7.018       5.767       4.160       2.213      6.1014E-03
   9    9.999       9.689       9.307       8.785       8.064       7.093       5.808       4.178       2.220      6.1189E-03
  10    9.999       9.695       9.322       8.810       8.096       7.118       5.823       4.185       2.222      6.1259E-03
1
              HEAD IN LAYER   3 AT END OF TIME STEP  40 IN STRESS PERIOD    3
  ---------------------------------------------------------------------------

            1           2           3           4           5           6           7           8           9          10
 ........................................................................................................................
   1    9.999       9.682       9.292       8.761       8.035       7.064       5.784       4.159       2.207      6.5484E-03
   2    9.999       9.668       9.256       8.694       7.943       6.996       5.747       4.143       2.202      6.5321E-03
   3    9.999       9.637       9.170       8.515       7.667       6.813       5.659       4.108       2.190      6.4976E-03
   4    9.999       9.591       9.028       8.148       6.924       6.438       5.510       4.056       2.174      6.4514E-03
   5    9.999       9.559       8.900       7.651       4.975       5.926       5.375       4.019       2.165      6.4233E-03
   6    9.999       9.591       9.028       8.148       6.925       6.439       5.510       4.056       2.174      6.4516E-03
   7    9.999       9.637       9.171       8.516       7.669       6.815       5.660       4.108       2.190      6.4981E-03
   8    9.999       9.669       9.259       8.699       7.948       7.000       5.750       4.145       2.202      6.5338E-03
   9    9.999       9.686       9.300       8.775       8.051       7.077       5.792       4.164       2.209      6.5534E-03
  10    9.999       9.692       9.315       8.801       8.083       7.103       5.808       4.171       2.212      6.5613E-03
1
              HEAD IN LAYER   4 AT END OF TIME STEP  40 IN STRESS PERIOD    3
  ---------------------------------------------------------------------------

            1           2           3           4           5           6           7           8           9          10
 ........................................................................................................................
   1    9.999       9.680       9.288       8.756       8.028       7.056       5.776       4.152       2.202      6.5811E-03
   2    9.999       9.666       9.252       8.688       7.935       6.987       5.739       4.136       2.196      6.5643E-03
   3    9.999       9.634       9.165       8.507       7.657       6.803       5.649       4.100       2.184      6.5289E-03
   4    9.999       9.588       9.021       8.138       6.918       6.426       5.499       4.047       2.168      6.4818E-03
   5    9.999       9.555       8.893       7.645       5.131       5.919       5.363       4.010       2.159      6.4532E-03
   6    9.999       9.588       9.022       8.138       6.918       6.426       5.499       4.047       2.168      6.4820E-03
   7    9.999       9.635       9.166       8.508       7.659       6.804       5.650       4.100       2.184      6.5295E-03
   8    9.999       9.667       9.255       8.692       7.940       6.991       5.742       4.137       2.197      6.5661E-03
   9    9.999       9.684       9.297       8.769       8.044       7.069       5.785       4.157       2.203      6.5863E-03
  10    9.999       9.691       9.312       8.796       8.077       7.096       5.800       4.164       2.206      6.5944E-03

 HEAD WILL BE SAVED ON UNIT   51 AT END OF TIME STEP   40, STRESS PERIOD    3

 DRAWDOWN WILL BE SAVED ON UNIT   52 AT END OF TIME STEP   40, STRESS PERIOD    3
1
  VOLUMETRIC BUDGET FOR ENTIRE MODEL AT END OF TIME STEP   40, STRESS PERIOD   3
  ------------------------------------------------------------------------------

     CUMULATIVE VOLUMES      L**3       RATES FOR THIS TIME STEP      L**3/T
     ------------------                 ------------------------

           IN:                                      IN:
           ---                                      ---
             STORAGE =      380233.6562               STORAGE =        1403.7357
       CONSTANT HEAD =           0.0000         CONSTANT HEAD =           0.0000
               WELLS =           0.0000                 WELLS =           0.0000
     HEAD DEP BOUNDS =        8260.0469       HEAD DEP BOUNDS =         211.8731

            TOTAL IN =      388493.6875              TOTAL IN =        1615.6089

          OUT:                                     OUT:
          ----                                     ----
             STORAGE =           0.0000               STORAGE =           0.0000
       CONSTANT HEAD =           0.0000         CONSTANT HEAD =           0.0000
               WELLS =       20000.0000                 WELLS =         500.0000
     HEAD DEP BOUNDS =      368495.0938       HEAD DEP BOUNDS =        1115.6190

           TOTAL OUT =      388495.0938             TOTAL OUT =        1615.6190

            IN - OUT =          -1.4062              IN - OUT =      -1.0132E-02

 PERCENT DISCREPANCY =          -0.00     PERCENT DISCREPANCY =          -0.00






         TIME SUMMARY AT END OF TIME STEP   40 IN STRESS PERIOD    3
                    SECONDS     MINUTES      HOURS       DAYS        YEARS
                    -----------------------------------------------------------
   TIME STEP LENGTH  86400.      1440.0      24.000      1.0000     2.73785E-03
 STRESS PERIOD TIME 3.45600E+06  57600.      960.00      40.000     0.10951    
         TOTAL TIME 1.21824E+07 2.03040E+05  3384.0      141.00     0.38604    
1
 
 SOLVING FOR HEAD 

 OUTPUT CONTROL FOR STRESS PERIOD    3   TIME STEP   41
    SAVE HEAD FOR ALL LAYERS
    SAVE DRAWDOWN FOR ALL LAYERS
    SAVE BUDGET
    PRINT HEAD FOR ALL LAYERS
    PRINT BUDGET
 UBDSV1 SAVING "         STORAGE" ON UNIT  53 AT TIME STEP 41, STRESS PERIOD   3
 UBDSV2 SAVING "   CONSTANT HEAD" ON UNIT  53 AT TIME STEP 41, STRESS PERIOD   3
 UBDSV1 SAVING "FLOW RIGHT FACE " ON UNIT  53 AT TIME STEP 41, STRESS PERIOD   3
 UBDSV1 SAVING "FLOW FRONT FACE " ON UNIT  53 AT TIME STEP 41, STRESS PERIOD   3
 UBDSV1 SAVING "FLOW LOWER FACE " ON UNIT  53 AT TIME STEP 41, STRESS PERIOD   3
1
              HEAD IN LAYER   1 AT END OF TIME STEP  41 IN STRESS PERIOD    3
  ---------------------------------------------------------------------------

            1           2           3           4           5           6           7           8           9          10
 ........................................................................................................................
   1    9.999       9.686       9.300       8.774       8.051       7.082       5.803       4.178       2.222      3.2035E-03
   2    9.999       9.673       9.266       8.709       7.962       7.016       5.768       4.162       2.217      3.1951E-03
   3    9.999       9.643       9.183       8.533       7.690       6.837       5.681       4.127       2.205      3.1773E-03
   4    9.999       9.598       9.043       8.171       6.939       6.465       5.534       4.076       2.190      3.1533E-03
   5    9.999       9.566       8.916       7.666       4.188       5.938       5.399       4.040       2.181      3.1385E-03
   6    9.999       9.598       9.043       8.171       6.939       6.465       5.534       4.076       2.190      3.1533E-03
   7    9.999       9.643       9.183       8.534       7.692       6.838       5.682       4.128       2.206      3.1775E-03
   8    9.999       9.674       9.269       8.713       7.967       7.020       5.770       4.164       2.217      3.1959E-03
   9    9.999       9.690       9.308       8.787       8.066       7.095       5.811       4.182       2.224      3.2060E-03
  10    9.999       9.696       9.323       8.812       8.098       7.120       5.826       4.189       2.226      3.2100E-03
1
              HEAD IN LAYER   2 AT END OF TIME STEP  41 IN STRESS PERIOD    3
  ---------------------------------------------------------------------------

            1           2           3           4           5           6           7           8           9          10
 ........................................................................................................................
   1    9.999       9.681       9.289       8.758       8.031       7.061       5.782       4.160       2.210      6.0915E-03
   2    9.999       9.667       9.253       8.691       7.939       6.992       5.745       4.144       2.204      6.0759E-03
   3    9.999       9.635       9.167       8.510       7.662       6.809       5.656       4.108       2.192      6.0432E-03
   4    9.999       9.589       9.024       8.143       6.909       6.432       5.506       4.055       2.177      5.9995E-03
   5    9.999       9.557       8.896       7.638       4.614       5.909       5.370       4.018       2.167      5.9729E-03
   6    9.999       9.589       9.025       8.143       6.910       6.433       5.507       4.055       2.177      5.9996E-03
   7    9.999       9.636       9.168       8.512       7.664       6.810       5.657       4.108       2.193      6.0437E-03
   8    9.999       9.668       9.256       8.695       7.944       6.997       5.748       4.145       2.205      6.0776E-03
   9    9.999       9.685       9.298       8.772       8.047       7.074       5.791       4.164       2.212      6.0963E-03
  10    9.999       9.691       9.313       8.798       8.080       7.101       5.806       4.172       2.214      6.1038E-03
1
              HEAD IN LAYER   3 AT END OF TIME STEP  41 IN STRESS PERIOD    3
  ---------------------------------------------------------------------------

            1           2           3           4           5           6           7           8           9          10
 ........................................................................................................................
   1    9.999       9.677       9.282       8.747       8.017       7.045       5.766       4.145       2.199      6.5240E-03
   2    9.999       9.662       9.245       8.678       7.923       6.975       5.728       4.128       2.193      6.5067E-03
   3    9.999       9.630       9.157       8.494       7.642       6.788       5.637       4.091       2.181      6.4705E-03
   4    9.999       9.583       9.012       8.123       6.893       6.408       5.485       4.037       2.165      6.4225E-03
   5    9.999       9.550       8.882       7.623       4.940       5.893       5.348       4.000       2.155      6.3935E-03
   6    9.999       9.583       9.012       8.123       6.894       6.408       5.485       4.038       2.165      6.4227E-03
   7    9.999       9.631       9.158       8.496       7.644       6.789       5.638       4.092       2.181      6.4711E-03
   8    9.999       9.664       9.248       8.682       7.928       6.979       5.731       4.130       2.194      6.5086E-03
   9    9.999       9.681       9.291       8.761       8.034       7.059       5.775       4.150       2.201      6.5294E-03
  10    9.999       9.688       9.307       8.788       8.068       7.086       5.791       4.157       2.204      6.5379E-03
1
              HEAD IN LAYER   4 AT END OF TIME STEP  41 IN STRESS PERIOD    3
  ---------------------------------------------------------------------------

            1           2           3           4           5           6           7           8           9          10
 ........................................................................................................................
   1    9.999       9.675       9.278       8.741       8.010       7.037       5.758       4.138       2.194      6.5566E-03
   2    9.999       9.660       9.241       8.671       7.915       6.966       5.719       4.121       2.188      6.5389E-03
   3    9.999       9.628       9.152       8.486       7.633       6.778       5.627       4.083       2.175      6.5018E-03
   4    9.999       9.580       9.005       8.113       6.887       6.396       5.474       4.029       2.159      6.4528E-03
   5    9.999       9.547       8.875       7.618       5.096       5.887       5.337       3.991       2.149      6.4233E-03
   6    9.999       9.580       9.005       8.114       6.888       6.397       5.474       4.029       2.159      6.4530E-03
   7    9.999       9.628       9.153       8.488       7.634       6.779       5.628       4.084       2.175      6.5024E-03
   8    9.999       9.662       9.244       8.676       7.920       6.971       5.722       4.122       2.188      6.5409E-03
   9    9.999       9.679       9.287       8.756       8.027       7.051       5.767       4.143       2.195      6.5623E-03
  10    9.999       9.686       9.304       8.783       8.061       7.079       5.784       4.150       2.198      6.5710E-03

 HEAD WILL BE SAVED ON UNIT   51 AT END OF TIME STEP   41, STRESS PERIOD    3

 DRAWDOWN WILL BE SAVED ON UNIT   52 AT END OF TIME STEP   41, STRESS PERIOD    3
1
  VOLUMETRIC BUDGET FOR ENTIRE MODEL AT END OF TIME STEP   41, STRESS PERIOD   3
  ------------------------------------------------------------------------------

     CUMULATIVE VOLUMES      L**3       RATES FOR THIS TIME STEP      L**3/T
     ------------------                 ------------------------

           IN:                                      IN:
           ---                                      ---
             STORAGE =      381629.0938               STORAGE =        1395.4470
       CONSTANT HEAD =           0.0000         CONSTANT HEAD =           0.0000
               WELLS =           0.0000                 WELLS =           0.0000
     HEAD DEP BOUNDS =        8475.6074       HEAD DEP BOUNDS =         215.5608

            TOTAL IN =      390104.6875              TOTAL IN =        1611.0078

          OUT:                                     OUT:
          ----                                     ----
             STORAGE =           0.0000               STORAGE =           0.0000
       CONSTANT HEAD =           0.0000         CONSTANT HEAD =           0.0000
               WELLS =       20500.0000                 WELLS =         500.0000
     HEAD DEP BOUNDS =      369606.1250       HEAD DEP BOUNDS =        1111.0201

           TOTAL OUT =      390106.1250             TOTAL OUT =        1611.0201

            IN - OUT =          -1.4375              IN - OUT =      -1.2329E-02

 PERCENT DISCREPANCY =          -0.00     PERCENT DISCREPANCY =          -0.00






         TIME SUMMARY AT END OF TIME STEP   41 IN STRESS PERIOD    3
                    SECONDS     MINUTES      HOURS       DAYS        YEARS
                    -----------------------------------------------------------
   TIME STEP LENGTH  86400.      1440.0      24.000      1.0000     2.73785E-03
 STRESS PERIOD TIME 3.54240E+06  59040.      984.00      41.000     0.11225    
         TOTAL TIME 1.22688E+07 2.04480E+05  3408.0      142.00     0.38877    
1
 
 SOLVING FOR HEAD 

 OUTPUT CONTROL FOR STRESS PERIOD    3   TIME STEP   42
    SAVE HEAD FOR ALL LAYERS
    SAVE DRAWDOWN FOR ALL LAYERS
    SAVE BUDGET
    PRINT HEAD FOR ALL LAYERS
    PRINT BUDGET
 UBDSV1 SAVING "         STORAGE" ON UNIT  53 AT TIME STEP 42, STRESS PERIOD   3
 UBDSV2 SAVING "   CONSTANT HEAD" ON UNIT  53 AT TIME STEP 42, STRESS PERIOD   3
 UBDSV1 SAVING "FLOW RIGHT FACE " ON UNIT  53 AT TIME STEP 42, STRESS PERIOD   3
 UBDSV1 SAVING "FLOW FRONT FACE " ON UNIT  53 AT TIME STEP 42, STRESS PERIOD   3
 UBDSV1 SAVING "FLOW LOWER FACE " ON UNIT  53 AT TIME STEP 42, STRESS PERIOD   3
1
              HEAD IN LAYER   1 AT END OF TIME STEP  42 IN STRESS PERIOD    3
  ---------------------------------------------------------------------------

            1           2           3           4           5           6           7           8           9          10
 ........................................................................................................................
   1    9.999       9.681       9.291       8.760       8.033       7.063       5.785       4.163       2.214      3.1904E-03
   2    9.999       9.667       9.255       8.693       7.942       6.995       5.748       4.147       2.208      3.1814E-03
   3    9.999       9.636       9.169       8.513       7.665       6.812       5.659       4.111       2.196      3.1628E-03
   4    9.999       9.590       9.027       8.146       6.908       6.434       5.509       4.058       2.180      3.1378E-03
   5    9.999       9.558       8.899       7.639       4.152       5.905       5.372       4.021       2.171      3.1227E-03
   6    9.999       9.590       9.027       8.146       6.909       6.435       5.509       4.058       2.180      3.1379E-03
   7    9.999       9.636       9.170       8.514       7.667       6.813       5.660       4.111       2.196      3.1631E-03
   8    9.999       9.669       9.258       8.697       7.947       6.999       5.751       4.148       2.209      3.1824E-03
   9    9.999       9.685       9.299       8.773       8.049       7.077       5.794       4.168       2.216      3.1932E-03
  10    9.999       9.692       9.314       8.799       8.082       7.103       5.809       4.175       2.218      3.1975E-03
1
              HEAD IN LAYER   2 AT END OF TIME STEP  42 IN STRESS PERIOD    3
  ---------------------------------------------------------------------------

            1           2           3           4           5           6           7           8           9          10
 ........................................................................................................................
   1    9.999       9.676       9.279       8.744       8.013       7.041       5.764       4.145       2.202      6.0686E-03
   2    9.999       9.661       9.242       8.674       7.919       6.971       5.726       4.128       2.196      6.0521E-03
   3    9.999       9.628       9.154       8.490       7.637       6.784       5.634       4.091       2.183      6.0178E-03
   4    9.999       9.581       9.008       8.118       6.879       6.402       5.481       4.037       2.167      5.9724E-03
   5    9.999       9.548       8.878       7.611       4.578       5.877       5.344       3.999       2.157      5.9450E-03
   6    9.999       9.581       9.008       8.118       6.879       6.403       5.481       4.037       2.167      5.9725E-03
   7    9.999       9.629       9.155       8.491       7.639       6.785       5.635       4.092       2.184      6.0184E-03
   8    9.999       9.663       9.245       8.679       7.924       6.976       5.729       4.130       2.196      6.0540E-03
   9    9.999       9.680       9.289       8.758       8.030       7.056       5.773       4.150       2.203      6.0738E-03
  10    9.999       9.687       9.305       8.785       8.065       7.083       5.790       4.158       2.206      6.0818E-03
1
              HEAD IN LAYER   3 AT END OF TIME STEP  42 IN STRESS PERIOD    3
  ---------------------------------------------------------------------------

            1           2           3           4           5           6           7           8           9          10
 ........................................................................................................................
   1    9.999       9.672       9.272       8.732       7.999       7.025       5.748       4.131       2.191      6.4997E-03
   2    9.999       9.657       9.234       8.661       7.903       6.953       5.708       4.113       2.185      6.4815E-03
   3    9.999       9.623       9.143       8.474       7.618       6.763       5.615       4.075       2.172      6.4435E-03
   4    9.999       9.575       8.995       8.098       6.863       6.378       5.460       4.019       2.155      6.3937E-03
   5    9.999       9.542       8.864       7.596       4.906       5.861       5.321       3.981       2.145      6.3639E-03
   6    9.999       9.575       8.996       8.099       6.864       6.379       5.460       4.020       2.155      6.3939E-03
   7    9.999       9.624       9.144       8.476       7.619       6.764       5.616       4.075       2.172      6.4442E-03
   8    9.999       9.658       9.237       8.666       7.909       6.958       5.712       4.115       2.185      6.4836E-03
   9    9.999       9.676       9.282       8.747       8.017       7.040       5.758       4.136       2.193      6.5056E-03
  10    9.999       9.684       9.298       8.776       8.052       7.069       5.775       4.144       2.196      6.5146E-03
1
              HEAD IN LAYER   4 AT END OF TIME STEP  42 IN STRESS PERIOD    3
  ---------------------------------------------------------------------------

            1           2           3           4           5           6           7           8           9          10
 ........................................................................................................................
   1    9.999       9.670       9.268       8.727       7.992       7.017       5.740       4.123       2.185      6.5323E-03
   2    9.999       9.655       9.229       8.655       7.895       6.945       5.700       4.106       2.179      6.5136E-03
   3    9.999       9.621       9.138       8.466       7.608       6.752       5.605       4.067       2.166      6.4747E-03
   4    9.999       9.572       8.989       8.089       6.857       6.367       5.449       4.011       2.149      6.4239E-03
   5    9.999       9.539       8.858       7.591       5.062       5.855       5.310       3.972       2.139      6.3936E-03
   6    9.999       9.572       8.989       8.089       6.858       6.367       5.449       4.011       2.149      6.4241E-03
   7    9.999       9.621       9.139       8.468       7.610       6.754       5.606       4.067       2.166      6.4755E-03
   8    9.999       9.656       9.233       8.660       7.901       6.950       5.703       4.107       2.180      6.5158E-03
   9    9.999       9.675       9.278       8.742       8.010       7.033       5.750       4.129       2.187      6.5384E-03
  10    9.999       9.682       9.295       8.771       8.046       7.062       5.767       4.137       2.191      6.5477E-03

 HEAD WILL BE SAVED ON UNIT   51 AT END OF TIME STEP   42, STRESS PERIOD    3

 DRAWDOWN WILL BE SAVED ON UNIT   52 AT END OF TIME STEP   42, STRESS PERIOD    3
1
  VOLUMETRIC BUDGET FOR ENTIRE MODEL AT END OF TIME STEP   42, STRESS PERIOD   3
  ------------------------------------------------------------------------------

     CUMULATIVE VOLUMES      L**3       RATES FOR THIS TIME STEP      L**3/T
     ------------------                 ------------------------

           IN:                                      IN:
           ---                                      ---
             STORAGE =      383016.2500               STORAGE =        1387.1718
       CONSTANT HEAD =           0.0000         CONSTANT HEAD =           0.0000
               WELLS =           0.0000                 WELLS =           0.0000
     HEAD DEP BOUNDS =        8694.8682       HEAD DEP BOUNDS =         219.2608

            TOTAL IN =      391711.1250              TOTAL IN =        1606.4325

          OUT:                                     OUT:
          ----                                     ----
             STORAGE =           0.0000               STORAGE =           0.0000
       CONSTANT HEAD =           0.0000         CONSTANT HEAD =           0.0000
               WELLS =       21000.0000                 WELLS =         500.0000
     HEAD DEP BOUNDS =      370712.5625       HEAD DEP BOUNDS =        1106.4475

           TOTAL OUT =      391712.5625             TOTAL OUT =        1606.4475

            IN - OUT =          -1.4375              IN - OUT =      -1.5015E-02

 PERCENT DISCREPANCY =          -0.00     PERCENT DISCREPANCY =          -0.00






         TIME SUMMARY AT END OF TIME STEP   42 IN STRESS PERIOD    3
                    SECONDS     MINUTES      HOURS       DAYS        YEARS
                    -----------------------------------------------------------
   TIME STEP LENGTH  86400.      1440.0      24.000      1.0000     2.73785E-03
 STRESS PERIOD TIME 3.62880E+06  60480.      1008.0      42.000     0.11499    
         TOTAL TIME 1.23552E+07 2.05920E+05  3432.0      143.00     0.39151    
1
 
 SOLVING FOR HEAD 

 OUTPUT CONTROL FOR STRESS PERIOD    3   TIME STEP   43
    SAVE HEAD FOR ALL LAYERS
    SAVE DRAWDOWN FOR ALL LAYERS
    SAVE BUDGET
    PRINT HEAD FOR ALL LAYERS
    PRINT BUDGET
 UBDSV1 SAVING "         STORAGE" ON UNIT  53 AT TIME STEP 43, STRESS PERIOD   3
 UBDSV2 SAVING "   CONSTANT HEAD" ON UNIT  53 AT TIME STEP 43, STRESS PERIOD   3
 UBDSV1 SAVING "FLOW RIGHT FACE " ON UNIT  53 AT TIME STEP 43, STRESS PERIOD   3
 UBDSV1 SAVING "FLOW FRONT FACE " ON UNIT  53 AT TIME STEP 43, STRESS PERIOD   3
 UBDSV1 SAVING "FLOW LOWER FACE " ON UNIT  53 AT TIME STEP 43, STRESS PERIOD   3
1
              HEAD IN LAYER   1 AT END OF TIME STEP  43 IN STRESS PERIOD    3
  ---------------------------------------------------------------------------

            1           2           3           4           5           6           7           8           9          10
 ........................................................................................................................
   1    9.999       9.676       9.281       8.745       8.015       7.044       5.767       4.149       2.206      3.1774E-03
   2    9.999       9.662       9.244       8.676       7.921       6.974       5.729       4.132       2.200      3.1681E-03
   3    9.999       9.629       9.155       8.492       7.640       6.786       5.637       4.094       2.187      3.1483E-03
   4    9.999       9.582       9.010       8.121       6.878       6.404       5.484       4.040       2.171      3.1225E-03
   5    9.999       9.550       8.881       7.611       4.117       5.873       5.346       4.002       2.161      3.1068E-03
   6    9.999       9.583       9.010       8.122       6.878       6.405       5.484       4.040       2.171      3.1225E-03
   7    9.999       9.630       9.156       8.494       7.642       6.788       5.637       4.095       2.187      3.1488E-03
   8    9.999       9.663       9.247       8.681       7.927       6.978       5.732       4.133       2.200      3.1691E-03
   9    9.999       9.681       9.290       8.760       8.032       7.058       5.776       4.153       2.207      3.1805E-03
  10    9.999       9.687       9.306       8.787       8.066       7.086       5.793       4.161       2.210      3.1850E-03
1
              HEAD IN LAYER   2 AT END OF TIME STEP  43 IN STRESS PERIOD    3
  ---------------------------------------------------------------------------

            1           2           3           4           5           6           7           8           9          10
 ........................................................................................................................
   1    9.999       9.671       9.270       8.729       7.995       7.022       5.746       4.131       2.193      6.0459E-03
   2    9.999       9.655       9.231       8.658       7.899       6.950       5.706       4.113       2.187      6.0285E-03
   3    9.999       9.622       9.140       8.470       7.613       6.758       5.612       4.075       2.174      5.9925E-03
   4    9.999       9.573       8.992       8.093       6.849       6.373       5.456       4.019       2.157      5.9454E-03
   5    9.999       9.540       8.861       7.584       4.543       5.845       5.317       3.980       2.147      5.9172E-03
   6    9.999       9.574       8.992       8.094       6.849       6.373       5.456       4.019       2.157      5.9456E-03
   7    9.999       9.622       9.141       8.471       7.614       6.760       5.613       4.075       2.174      5.9932E-03
   8    9.999       9.657       9.234       8.663       7.905       6.955       5.710       4.115       2.188      6.0306E-03
   9    9.999       9.675       9.279       8.744       8.013       7.038       5.756       4.136       2.195      6.0515E-03
  10    9.999       9.683       9.296       8.773       8.049       7.066       5.773       4.144       2.199      6.0601E-03
1
              HEAD IN LAYER   3 AT END OF TIME STEP  43 IN STRESS PERIOD    3
  ---------------------------------------------------------------------------

            1           2           3           4           5           6           7           8           9          10
 ........................................................................................................................
   1    9.999       9.667       9.262       8.718       7.981       7.006       5.730       4.116       2.183      6.4756E-03
   2    9.999       9.651       9.222       8.645       7.883       6.932       5.689       4.098       2.176      6.4564E-03
   3    9.999       9.617       9.130       8.454       7.593       6.738       5.593       4.058       2.163      6.4167E-03
   4    9.999       9.567       8.979       8.074       6.833       6.349       5.435       4.001       2.145      6.3650E-03
   5    9.999       9.533       8.847       7.570       4.871       5.829       5.295       3.962       2.135      6.3344E-03
   6    9.999       9.568       8.979       8.075       6.834       6.349       5.435       4.002       2.145      6.3652E-03
   7    9.999       9.617       9.131       8.455       7.595       6.739       5.594       4.059       2.163      6.4175E-03
   8    9.999       9.653       9.226       8.650       7.889       6.937       5.693       4.100       2.177      6.4587E-03
   9    9.999       9.672       9.272       8.734       8.000       7.022       5.740       4.122       2.185      6.4820E-03
  10    9.999       9.679       9.290       8.763       8.036       7.052       5.758       4.131       2.188      6.4916E-03
1
              HEAD IN LAYER   4 AT END OF TIME STEP  43 IN STRESS PERIOD    3
  ---------------------------------------------------------------------------

            1           2           3           4           5           6           7           8           9          10
 ........................................................................................................................
   1    9.999       9.665       9.258       8.712       7.974       6.998       5.722       4.109       2.177      6.5081E-03
   2    9.999       9.649       9.218       8.638       7.875       6.923       5.680       4.091       2.171      6.4884E-03
   3    9.999       9.614       9.124       8.446       7.583       6.728       5.583       4.050       2.157      6.4478E-03
   4    9.999       9.564       8.973       8.065       6.827       6.337       5.424       3.993       2.139      6.3951E-03
   5    9.999       9.530       8.840       7.565       5.028       5.823       5.284       3.953       2.129      6.3640E-03
   6    9.999       9.565       8.973       8.065       6.828       6.338       5.424       3.993       2.139      6.3954E-03
   7    9.999       9.615       9.126       8.448       7.585       6.729       5.584       4.051       2.157      6.4487E-03
   8    9.999       9.651       9.222       8.644       7.881       6.929       5.684       4.093       2.172      6.4908E-03
   9    9.999       9.670       9.269       8.728       7.993       7.015       5.732       4.115       2.180      6.5148E-03
  10    9.999       9.678       9.286       8.758       8.030       7.044       5.750       4.124       2.183      6.5246E-03

 HEAD WILL BE SAVED ON UNIT   51 AT END OF TIME STEP   43, STRESS PERIOD    3

 DRAWDOWN WILL BE SAVED ON UNIT   52 AT END OF TIME STEP   43, STRESS PERIOD    3
1
  VOLUMETRIC BUDGET FOR ENTIRE MODEL AT END OF TIME STEP   43, STRESS PERIOD   3
  ------------------------------------------------------------------------------

     CUMULATIVE VOLUMES      L**3       RATES FOR THIS TIME STEP      L**3/T
     ------------------                 ------------------------

           IN:                                      IN:
           ---                                      ---
             STORAGE =      384395.1875               STORAGE =        1378.9280
       CONSTANT HEAD =           0.0000         CONSTANT HEAD =           0.0000
               WELLS =           0.0000                 WELLS =           0.0000
     HEAD DEP BOUNDS =        8917.8418       HEAD DEP BOUNDS =         222.9736

            TOTAL IN =      393313.0312              TOTAL IN =        1601.9015

          OUT:                                     OUT:
          ----                                     ----
             STORAGE =           0.0000               STORAGE =           0.0000
       CONSTANT HEAD =           0.0000         CONSTANT HEAD =           0.0000
               WELLS =       21500.0000                 WELLS =         500.0000
     HEAD DEP BOUNDS =      371814.4688       HEAD DEP BOUNDS =        1101.9025

           TOTAL OUT =      393314.4688             TOTAL OUT =        1601.9025

            IN - OUT =          -1.4375              IN - OUT =      -9.7656E-04

 PERCENT DISCREPANCY =          -0.00     PERCENT DISCREPANCY =          -0.00






         TIME SUMMARY AT END OF TIME STEP   43 IN STRESS PERIOD    3
                    SECONDS     MINUTES      HOURS       DAYS        YEARS
                    -----------------------------------------------------------
   TIME STEP LENGTH  86400.      1440.0      24.000      1.0000     2.73785E-03
 STRESS PERIOD TIME 3.71520E+06  61920.      1032.0      43.000     0.11773    
         TOTAL TIME 1.24416E+07 2.07360E+05  3456.0      144.00     0.39425    
1
 
 SOLVING FOR HEAD 

 OUTPUT CONTROL FOR STRESS PERIOD    3   TIME STEP   44
    SAVE HEAD FOR ALL LAYERS
    SAVE DRAWDOWN FOR ALL LAYERS
    SAVE BUDGET
    PRINT HEAD FOR ALL LAYERS
    PRINT BUDGET
 UBDSV1 SAVING "         STORAGE" ON UNIT  53 AT TIME STEP 44, STRESS PERIOD   3
 UBDSV2 SAVING "   CONSTANT HEAD" ON UNIT  53 AT TIME STEP 44, STRESS PERIOD   3
 UBDSV1 SAVING "FLOW RIGHT FACE " ON UNIT  53 AT TIME STEP 44, STRESS PERIOD   3
 UBDSV1 SAVING "FLOW FRONT FACE " ON UNIT  53 AT TIME STEP 44, STRESS PERIOD   3
 UBDSV1 SAVING "FLOW LOWER FACE " ON UNIT  53 AT TIME STEP 44, STRESS PERIOD   3
1
              HEAD IN LAYER   1 AT END OF TIME STEP  44 IN STRESS PERIOD    3
  ---------------------------------------------------------------------------

            1           2           3           4           5           6           7           8           9          10
 ........................................................................................................................
   1    9.999       9.671       9.271       8.731       7.997       7.025       5.749       4.134       2.197      3.1646E-03
   2    9.999       9.656       9.232       8.660       7.901       6.952       5.709       4.117       2.191      3.1547E-03
   3    9.999       9.623       9.142       8.472       7.615       6.761       5.614       4.078       2.178      3.1341E-03
   4    9.999       9.575       8.994       8.097       6.847       6.375       5.458       4.022       2.161      3.1072E-03
   5    9.999       9.541       8.864       7.585       4.083       5.840       5.319       3.983       2.151      3.0913E-03
   6    9.999       9.575       8.994       8.097       6.848       6.375       5.459       4.022       2.161      3.1073E-03
   7    9.999       9.623       9.143       8.474       7.617       6.763       5.615       4.078       2.178      3.1346E-03
   8    9.999       9.658       9.236       8.665       7.907       6.957       5.712       4.118       2.192      3.1558E-03
   9    9.999       9.676       9.281       8.746       8.015       7.040       5.759       4.140       2.199      3.1679E-03
  10    9.999       9.683       9.297       8.774       8.051       7.069       5.776       4.148       2.202      3.1728E-03
1
              HEAD IN LAYER   2 AT END OF TIME STEP  44 IN STRESS PERIOD    3
  ---------------------------------------------------------------------------

            1           2           3           4           5           6           7           8           9          10
 ........................................................................................................................
   1    9.999       9.666       9.260       8.714       7.977       7.003       5.728       4.117       2.185      6.0233E-03
   2    9.999       9.650       9.220       8.641       7.879       6.929       5.687       4.098       2.179      6.0050E-03
   3    9.999       9.615       9.127       8.450       7.588       6.734       5.590       4.058       2.165      5.9674E-03
   4    9.999       9.566       8.976       8.069       6.819       6.343       5.431       4.001       2.148      5.9185E-03
   5    9.999       9.532       8.844       7.557       4.509       5.813       5.291       3.962       2.137      5.8896E-03
   6    9.999       9.566       8.976       8.070       6.820       6.344       5.432       4.001       2.148      5.9187E-03
   7    9.999       9.616       9.128       8.451       7.590       6.735       5.591       4.059       2.165      5.9682E-03
   8    9.999       9.652       9.223       8.646       7.885       6.934       5.691       4.100       2.180      6.0073E-03
   9    9.999       9.671       9.270       8.731       7.996       7.019       5.739       4.122       2.187      6.0294E-03
  10    9.999       9.678       9.288       8.760       8.033       7.049       5.757       4.131       2.191      6.0385E-03
1
              HEAD IN LAYER   3 AT END OF TIME STEP  44 IN STRESS PERIOD    3
  ---------------------------------------------------------------------------

            1           2           3           4           5           6           7           8           9          10
 ........................................................................................................................
   1    9.999       9.662       9.252       8.703       7.963       6.987       5.712       4.102       2.175      6.4517E-03
   2    9.999       9.646       9.211       8.628       7.862       6.911       5.670       4.083       2.168      6.4315E-03
   3    9.999       9.610       9.116       8.434       7.569       6.713       5.571       4.042       2.154      6.3901E-03
   4    9.999       9.560       8.963       8.050       6.804       6.320       5.410       3.984       2.136      6.3365E-03
   5    9.999       9.525       8.830       7.544       4.838       5.798       5.269       3.944       2.125      6.3050E-03
   6    9.999       9.560       8.963       8.051       6.805       6.320       5.410       3.984       2.136      6.3368E-03
   7    9.999       9.611       9.117       8.436       7.571       6.715       5.572       4.043       2.154      6.3909E-03
   8    9.999       9.647       9.215       8.634       7.869       6.917       5.674       4.085       2.169      6.4340E-03
   9    9.999       9.667       9.263       8.720       7.983       7.004       5.723       4.108       2.177      6.4586E-03
  10    9.999       9.675       9.281       8.751       8.021       7.035       5.742       4.117       2.180      6.4688E-03
1
              HEAD IN LAYER   4 AT END OF TIME STEP  44 IN STRESS PERIOD    3
  ---------------------------------------------------------------------------

            1           2           3           4           5           6           7           8           9          10
 ........................................................................................................................
   1    9.999       9.660       9.248       8.697       7.956       6.979       5.704       4.095       2.169      6.4841E-03
   2    9.999       9.644       9.207       8.622       7.854       6.902       5.661       4.076       2.162      6.4634E-03
   3    9.999       9.608       9.111       8.426       7.559       6.703       5.561       4.034       2.148      6.4211E-03
   4    9.999       9.557       8.957       8.041       6.798       6.308       5.400       3.975       2.130      6.3665E-03
   5    9.999       9.522       8.823       7.539       4.995       5.792       5.258       3.935       2.119      6.3345E-03
   6    9.999       9.557       8.957       8.041       6.799       6.309       5.400       3.975       2.130      6.3668E-03
   7    9.999       9.608       9.112       8.428       7.561       6.705       5.562       4.035       2.148      6.4220E-03
   8    9.999       9.645       9.211       8.628       7.861       6.908       5.665       4.078       2.163      6.4661E-03
   9    9.999       9.665       9.259       8.715       7.976       6.996       5.715       4.101       2.172      6.4913E-03
  10    9.999       9.673       9.278       8.746       8.014       7.027       5.734       4.110       2.175      6.5017E-03

 HEAD WILL BE SAVED ON UNIT   51 AT END OF TIME STEP   44, STRESS PERIOD    3

 DRAWDOWN WILL BE SAVED ON UNIT   52 AT END OF TIME STEP   44, STRESS PERIOD    3
1
  VOLUMETRIC BUDGET FOR ENTIRE MODEL AT END OF TIME STEP   44, STRESS PERIOD   3
  ------------------------------------------------------------------------------

     CUMULATIVE VOLUMES      L**3       RATES FOR THIS TIME STEP      L**3/T
     ------------------                 ------------------------

           IN:                                      IN:
           ---                                      ---
             STORAGE =      385765.9062               STORAGE =        1370.7120
       CONSTANT HEAD =           0.0000         CONSTANT HEAD =           0.0000
               WELLS =           0.0000                 WELLS =           0.0000
     HEAD DEP BOUNDS =        9144.5156       HEAD DEP BOUNDS =         226.6738

            TOTAL IN =      394910.4375              TOTAL IN =        1597.3859

          OUT:                                     OUT:
          ----                                     ----
             STORAGE =           0.0000               STORAGE =           0.0000
       CONSTANT HEAD =           0.0000         CONSTANT HEAD =           0.0000
               WELLS =       22000.0000                 WELLS =         500.0000
     HEAD DEP BOUNDS =      372911.8438       HEAD DEP BOUNDS =        1097.3870

           TOTAL OUT =      394911.8438             TOTAL OUT =        1597.3870

            IN - OUT =          -1.4062              IN - OUT =      -1.0986E-03

 PERCENT DISCREPANCY =          -0.00     PERCENT DISCREPANCY =          -0.00






         TIME SUMMARY AT END OF TIME STEP   44 IN STRESS PERIOD    3
                    SECONDS     MINUTES      HOURS       DAYS        YEARS
                    -----------------------------------------------------------
   TIME STEP LENGTH  86400.      1440.0      24.000      1.0000     2.73785E-03
 STRESS PERIOD TIME 3.80160E+06  63360.      1056.0      44.000     0.12047    
         TOTAL TIME 1.25280E+07 2.08800E+05  3480.0      145.00     0.39699    
1
 
 SOLVING FOR HEAD 

 OUTPUT CONTROL FOR STRESS PERIOD    3   TIME STEP   45
    SAVE HEAD FOR ALL LAYERS
    SAVE DRAWDOWN FOR ALL LAYERS
    SAVE BUDGET
    PRINT HEAD FOR ALL LAYERS
    PRINT BUDGET
 UBDSV1 SAVING "         STORAGE" ON UNIT  53 AT TIME STEP 45, STRESS PERIOD   3
 UBDSV2 SAVING "   CONSTANT HEAD" ON UNIT  53 AT TIME STEP 45, STRESS PERIOD   3
 UBDSV1 SAVING "FLOW RIGHT FACE " ON UNIT  53 AT TIME STEP 45, STRESS PERIOD   3
 UBDSV1 SAVING "FLOW FRONT FACE " ON UNIT  53 AT TIME STEP 45, STRESS PERIOD   3
 UBDSV1 SAVING "FLOW LOWER FACE " ON UNIT  53 AT TIME STEP 45, STRESS PERIOD   3
1
              HEAD IN LAYER   1 AT END OF TIME STEP  45 IN STRESS PERIOD    3
  ---------------------------------------------------------------------------

            1           2           3           4           5           6           7           8           9          10
 ........................................................................................................................
   1    9.999       9.667       9.261       8.716       7.979       7.006       5.731       4.120       2.189      3.1517E-03
   2    9.999       9.651       9.221       8.643       7.881       6.931       5.690       4.102       2.183      3.1413E-03
   3    9.999       9.616       9.128       8.452       7.591       6.736       5.593       4.061       2.169      3.1199E-03
   4    9.999       9.567       8.978       8.072       6.818       6.345       5.434       4.004       2.151      3.0921E-03
   5    9.999       9.533       8.846       7.558       4.049       5.809       5.293       3.964       2.141      3.0755E-03
   6    9.999       9.567       8.978       8.073       6.818       6.346       5.434       4.004       2.151      3.0922E-03
   7    9.999       9.617       9.129       8.454       7.593       6.738       5.594       4.062       2.169      3.1204E-03
   8    9.999       9.652       9.225       8.648       7.887       6.937       5.693       4.103       2.183      3.1426E-03
   9    9.999       9.671       9.271       8.732       7.999       7.022       5.741       4.126       2.191      3.1553E-03
  10    9.999       9.679       9.289       8.762       8.035       7.051       5.759       4.134       2.195      3.1605E-03
1
              HEAD IN LAYER   2 AT END OF TIME STEP  45 IN STRESS PERIOD    3
  ---------------------------------------------------------------------------

            1           2           3           4           5           6           7           8           9          10
 ........................................................................................................................
   1    9.999       9.661       9.250       8.700       7.959       6.984       5.710       4.103       2.177      6.0008E-03
   2    9.999       9.644       9.209       8.625       7.858       6.908       5.668       4.083       2.170      5.9817E-03
   3    9.999       9.608       9.113       8.430       7.564       6.709       5.568       4.042       2.156      5.9425E-03
   4    9.999       9.558       8.960       8.045       6.790       6.314       5.407       3.983       2.138      5.8918E-03
   5    9.999       9.523       8.826       7.531       4.476       5.782       5.265       3.943       2.127      5.8621E-03
   6    9.999       9.558       8.960       8.046       6.790       6.315       5.407       3.983       2.138      5.8921E-03
   7    9.999       9.609       9.114       8.431       7.566       6.710       5.569       4.042       2.156      5.9433E-03
   8    9.999       9.646       9.212       8.630       7.865       6.913       5.672       4.085       2.171      5.9841E-03
   9    9.999       9.666       9.261       8.717       7.980       7.001       5.721       4.109       2.180      6.0074E-03
  10    9.999       9.674       9.279       8.748       8.018       7.032       5.740       4.118       2.183      6.0171E-03
1
              HEAD IN LAYER   3 AT END OF TIME STEP  45 IN STRESS PERIOD    3
  ---------------------------------------------------------------------------

            1           2           3           4           5           6           7           8           9          10
 ........................................................................................................................
   1    9.999       9.657       9.242       8.689       7.945       6.968       5.694       4.088       2.167      6.4278E-03
   2    9.999       9.640       9.200       8.612       7.842       6.890       5.651       4.068       2.159      6.4067E-03
   3    9.999       9.603       9.103       8.414       7.545       6.688       5.549       4.026       2.145      6.3635E-03
   4    9.999       9.552       8.947       8.026       6.775       6.291       5.386       3.966       2.126      6.3081E-03
   5    9.999       9.517       8.813       7.518       4.805       5.767       5.244       3.925       2.115      6.2758E-03
   6    9.999       9.552       8.948       8.027       6.776       6.292       5.386       3.966       2.126      6.3084E-03
   7    9.999       9.604       9.104       8.416       7.547       6.690       5.550       4.026       2.145      6.3645E-03
   8    9.999       9.642       9.204       8.618       7.849       6.896       5.655       4.071       2.160      6.4094E-03
   9    9.999       9.662       9.254       8.706       7.966       6.986       5.706       4.094       2.169      6.4353E-03
  10    9.999       9.671       9.272       8.738       8.005       7.018       5.725       4.104       2.173      6.4461E-03
1
              HEAD IN LAYER   4 AT END OF TIME STEP  45 IN STRESS PERIOD    3
  ---------------------------------------------------------------------------

            1           2           3           4           5           6           7           8           9          10
 ........................................................................................................................
   1    9.999       9.655       9.238       8.683       7.938       6.960       5.686       4.081       2.161      6.4602E-03
   2    9.999       9.638       9.196       8.605       7.834       6.881       5.642       4.061       2.154      6.4385E-03
   3    9.999       9.601       9.097       8.406       7.535       6.678       5.539       4.018       2.139      6.3945E-03
   4    9.999       9.549       8.941       8.017       6.769       6.280       5.375       3.957       2.120      6.3381E-03
   5    9.999       9.514       8.806       7.513       4.963       5.761       5.233       3.917       2.109      6.3053E-03
   6    9.999       9.549       8.941       8.018       6.770       6.280       5.376       3.957       2.120      6.3383E-03
   7    9.999       9.601       9.099       8.408       7.537       6.680       5.541       4.018       2.140      6.3954E-03
   8    9.999       9.640       9.200       8.611       7.841       6.887       5.646       4.063       2.155      6.4414E-03
   9    9.999       9.661       9.250       8.701       7.959       6.978       5.698       4.087       2.164      6.4679E-03
  10    9.999       9.669       9.269       8.733       7.999       7.010       5.718       4.097       2.168      6.4790E-03

 HEAD WILL BE SAVED ON UNIT   51 AT END OF TIME STEP   45, STRESS PERIOD    3

 DRAWDOWN WILL BE SAVED ON UNIT   52 AT END OF TIME STEP   45, STRESS PERIOD    3
1
  VOLUMETRIC BUDGET FOR ENTIRE MODEL AT END OF TIME STEP   45, STRESS PERIOD   3
  ------------------------------------------------------------------------------

     CUMULATIVE VOLUMES      L**3       RATES FOR THIS TIME STEP      L**3/T
     ------------------                 ------------------------

           IN:                                      IN:
           ---                                      ---
             STORAGE =      387128.4062               STORAGE =        1362.5107
       CONSTANT HEAD =           0.0000         CONSTANT HEAD =           0.0000
               WELLS =           0.0000                 WELLS =           0.0000
     HEAD DEP BOUNDS =        9374.8779       HEAD DEP BOUNDS =         230.3623

            TOTAL IN =      396503.2812              TOTAL IN =        1592.8730

          OUT:                                     OUT:
          ----                                     ----
             STORAGE =           0.0000               STORAGE =           0.0000
       CONSTANT HEAD =           0.0000         CONSTANT HEAD =           0.0000
               WELLS =       22500.0000                 WELLS =         500.0000
     HEAD DEP BOUNDS =      374004.7500       HEAD DEP BOUNDS =        1092.8937

           TOTAL OUT =      396504.7500             TOTAL OUT =        1592.8937

            IN - OUT =          -1.4688              IN - OUT =      -2.0630E-02

 PERCENT DISCREPANCY =          -0.00     PERCENT DISCREPANCY =          -0.00






         TIME SUMMARY AT END OF TIME STEP   45 IN STRESS PERIOD    3
                    SECONDS     MINUTES      HOURS       DAYS        YEARS
                    -----------------------------------------------------------
   TIME STEP LENGTH  86400.      1440.0      24.000      1.0000     2.73785E-03
 STRESS PERIOD TIME 3.88800E+06  64800.      1080.0      45.000     0.12320    
         TOTAL TIME 1.26144E+07 2.10240E+05  3504.0      146.00     0.39973    
1
 
 SOLVING FOR HEAD 

 OUTPUT CONTROL FOR STRESS PERIOD    3   TIME STEP   46
    SAVE HEAD FOR ALL LAYERS
    SAVE DRAWDOWN FOR ALL LAYERS
    SAVE BUDGET
    PRINT HEAD FOR ALL LAYERS
    PRINT BUDGET
 UBDSV1 SAVING "         STORAGE" ON UNIT  53 AT TIME STEP 46, STRESS PERIOD   3
 UBDSV2 SAVING "   CONSTANT HEAD" ON UNIT  53 AT TIME STEP 46, STRESS PERIOD   3
 UBDSV1 SAVING "FLOW RIGHT FACE " ON UNIT  53 AT TIME STEP 46, STRESS PERIOD   3
 UBDSV1 SAVING "FLOW FRONT FACE " ON UNIT  53 AT TIME STEP 46, STRESS PERIOD   3
 UBDSV1 SAVING "FLOW LOWER FACE " ON UNIT  53 AT TIME STEP 46, STRESS PERIOD   3
1
              HEAD IN LAYER   1 AT END OF TIME STEP  46 IN STRESS PERIOD    3
  ---------------------------------------------------------------------------

            1           2           3           4           5           6           7           8           9          10
 ........................................................................................................................
   1    9.999       9.661       9.251       8.702       7.962       6.986       5.713       4.106       2.181      3.1392E-03
   2    9.999       9.645       9.210       8.627       7.861       6.910       5.670       4.087       2.174      3.1282E-03
   3    9.999       9.609       9.115       8.432       7.567       6.711       5.571       4.045       2.160      3.1057E-03
   4    9.999       9.559       8.962       8.048       6.788       6.316       5.409       3.986       2.141      3.0769E-03
   5    9.999       9.525       8.829       7.532       4.015       5.777       5.267       3.946       2.131      3.0600E-03
   6    9.999       9.559       8.962       8.049       6.789       6.317       5.409       3.986       2.141      3.0771E-03
   7    9.999       9.610       9.116       8.434       7.569       6.713       5.572       4.045       2.160      3.1062E-03
   8    9.999       9.647       9.214       8.632       7.867       6.916       5.674       4.089       2.175      3.1295E-03
   9    9.999       9.667       9.262       8.719       7.982       7.004       5.724       4.112       2.183      3.1429E-03
  10    9.999       9.674       9.280       8.749       8.020       7.034       5.743       4.121       2.187      3.1484E-03
1
              HEAD IN LAYER   2 AT END OF TIME STEP  46 IN STRESS PERIOD    3
  ---------------------------------------------------------------------------

            1           2           3           4           5           6           7           8           9          10
 ........................................................................................................................
   1    9.999       9.656       9.240       8.685       7.941       6.965       5.692       4.088       2.169      5.9785E-03
   2    9.999       9.639       9.197       8.608       7.838       6.887       5.648       4.068       2.162      5.9584E-03
   3    9.999       9.602       9.099       8.410       7.540       6.684       5.546       4.025       2.147      5.9176E-03
   4    9.999       9.550       8.944       8.022       6.761       6.286       5.382       3.965       2.128      5.8652E-03
   5    9.999       9.515       8.809       7.506       4.443       5.751       5.239       3.924       2.117      5.8347E-03
   6    9.999       9.550       8.944       8.022       6.762       6.286       5.383       3.965       2.128      5.8655E-03
   7    9.999       9.602       9.101       8.412       7.542       6.686       5.548       4.026       2.148      5.9185E-03
   8    9.999       9.641       9.201       8.614       7.845       6.893       5.653       4.071       2.163      5.9611E-03
   9    9.999       9.661       9.251       8.703       7.963       6.983       5.704       4.095       2.172      5.9856E-03
  10    9.999       9.670       9.270       8.735       8.002       7.015       5.724       4.104       2.175      5.9959E-03
1
              HEAD IN LAYER   3 AT END OF TIME STEP  46 IN STRESS PERIOD    3
  ---------------------------------------------------------------------------

            1           2           3           4           5           6           7           8           9          10
 ........................................................................................................................
   1    9.999       9.652       9.232       8.674       7.927       6.949       5.676       4.074       2.159      6.4041E-03
   2    9.999       9.634       9.189       8.595       7.822       6.869       5.631       4.053       2.151      6.3820E-03
   3    9.999       9.597       9.089       8.394       7.521       6.664       5.527       4.009       2.136      6.3371E-03
   4    9.999       9.544       8.931       8.003       6.746       6.263       5.361       3.948       2.117      6.2799E-03
   5    9.999       9.509       8.796       7.493       4.773       5.736       5.218       3.907       2.105      6.2468E-03
   6    9.999       9.544       8.932       8.003       6.747       6.263       5.362       3.948       2.117      6.2802E-03
   7    9.999       9.597       9.090       8.396       7.523       6.666       5.529       4.010       2.136      6.3381E-03
   8    9.999       9.636       9.193       8.602       7.830       6.875       5.636       4.056       2.152      6.3850E-03
   9    9.999       9.658       9.244       8.693       7.949       6.968       5.689       4.081       2.161      6.4122E-03
  10    9.999       9.666       9.264       8.725       7.990       7.001       5.709       4.091       2.165      6.4236E-03
1
              HEAD IN LAYER   4 AT END OF TIME STEP  46 IN STRESS PERIOD    3
  ---------------------------------------------------------------------------

            1           2           3           4           5           6           7           8           9          10
 ........................................................................................................................
   1    9.999       9.650       9.228       8.668       7.920       6.941       5.668       4.067       2.153      6.4365E-03
   2    9.999       9.632       9.184       8.589       7.814       6.860       5.623       4.046       2.146      6.4138E-03
   3    9.999       9.594       9.084       8.386       7.511       6.654       5.518       4.001       2.130      6.3680E-03
   4    9.999       9.541       8.925       7.994       6.741       6.251       5.351       3.940       2.111      6.3098E-03
   5    9.999       9.505       8.789       7.488       4.930       5.731       5.207       3.898       2.100      6.2761E-03
   6    9.999       9.541       8.926       7.994       6.741       6.252       5.351       3.940       2.111      6.3101E-03
   7    9.999       9.595       9.085       8.388       7.513       6.656       5.519       4.002       2.131      6.3691E-03
   8    9.999       9.634       9.189       8.595       7.822       6.867       5.627       4.048       2.147      6.4169E-03
   9    9.999       9.656       9.241       8.687       7.942       6.960       5.681       4.074       2.156      6.4448E-03
  10    9.999       9.665       9.260       8.721       7.983       6.994       5.702       4.084       2.160      6.4565E-03

 HEAD WILL BE SAVED ON UNIT   51 AT END OF TIME STEP   46, STRESS PERIOD    3

 DRAWDOWN WILL BE SAVED ON UNIT   52 AT END OF TIME STEP   46, STRESS PERIOD    3
1
  VOLUMETRIC BUDGET FOR ENTIRE MODEL AT END OF TIME STEP   46, STRESS PERIOD   3
  ------------------------------------------------------------------------------

     CUMULATIVE VOLUMES      L**3       RATES FOR THIS TIME STEP      L**3/T
     ------------------                 ------------------------

           IN:                                      IN:
           ---                                      ---
             STORAGE =      388482.7500               STORAGE =        1354.3418
       CONSTANT HEAD =           0.0000         CONSTANT HEAD =           0.0000
               WELLS =           0.0000                 WELLS =           0.0000
     HEAD DEP BOUNDS =        9608.9443       HEAD DEP BOUNDS =         234.0668

            TOTAL IN =      398091.6875              TOTAL IN =        1588.4087

          OUT:                                     OUT:
          ----                                     ----
             STORAGE =           0.0000               STORAGE =           0.0000
       CONSTANT HEAD =           0.0000         CONSTANT HEAD =           0.0000
               WELLS =       23000.0000                 WELLS =         500.0000
     HEAD DEP BOUNDS =      375093.1875       HEAD DEP BOUNDS =        1088.4286

           TOTAL OUT =      398093.1875             TOTAL OUT =        1588.4286

            IN - OUT =          -1.5000              IN - OUT =      -1.9897E-02

 PERCENT DISCREPANCY =          -0.00     PERCENT DISCREPANCY =          -0.00






         TIME SUMMARY AT END OF TIME STEP   46 IN STRESS PERIOD    3
                    SECONDS     MINUTES      HOURS       DAYS        YEARS
                    -----------------------------------------------------------
   TIME STEP LENGTH  86400.      1440.0      24.000      1.0000     2.73785E-03
 STRESS PERIOD TIME 3.97440E+06  66240.      1104.0      46.000     0.12594    
         TOTAL TIME 1.27008E+07 2.11680E+05  3528.0      147.00     0.40246    
1
 
 SOLVING FOR HEAD 

 OUTPUT CONTROL FOR STRESS PERIOD    3   TIME STEP   47
    SAVE HEAD FOR ALL LAYERS
    SAVE DRAWDOWN FOR ALL LAYERS
    SAVE BUDGET
    PRINT HEAD FOR ALL LAYERS
    PRINT BUDGET
 UBDSV1 SAVING "         STORAGE" ON UNIT  53 AT TIME STEP 47, STRESS PERIOD   3
 UBDSV2 SAVING "   CONSTANT HEAD" ON UNIT  53 AT TIME STEP 47, STRESS PERIOD   3
 UBDSV1 SAVING "FLOW RIGHT FACE " ON UNIT  53 AT TIME STEP 47, STRESS PERIOD   3
 UBDSV1 SAVING "FLOW FRONT FACE " ON UNIT  53 AT TIME STEP 47, STRESS PERIOD   3
 UBDSV1 SAVING "FLOW LOWER FACE " ON UNIT  53 AT TIME STEP 47, STRESS PERIOD   3
1
              HEAD IN LAYER   1 AT END OF TIME STEP  47 IN STRESS PERIOD    3
  ---------------------------------------------------------------------------

            1           2           3           4           5           6           7           8           9          10
 ........................................................................................................................
   1    9.999       9.656       9.241       8.687       7.944       6.967       5.695       4.092       2.173      3.1265E-03
   2    9.999       9.639       9.199       8.610       7.841       6.889       5.651       4.072       2.166      3.1150E-03
   3    9.999       9.603       9.101       8.412       7.542       6.687       5.549       4.028       2.151      3.0918E-03
   4    9.999       9.551       8.946       8.025       6.760       6.287       5.385       3.968       2.132      3.0619E-03
   5    9.999       9.516       8.812       7.507       3.982       5.746       5.241       3.927       2.121      3.0447E-03
   6    9.999       9.551       8.946       8.025       6.760       6.288       5.385       3.968       2.132      3.0621E-03
   7    9.999       9.603       9.103       8.414       7.545       6.688       5.550       4.029       2.151      3.0923E-03
   8    9.999       9.641       9.203       8.616       7.848       6.895       5.655       4.074       2.167      3.1166E-03
   9    9.999       9.662       9.252       8.705       7.965       6.985       5.707       4.098       2.176      3.1306E-03
  10    9.999       9.670       9.271       8.737       8.004       7.017       5.727       4.108       2.179      3.1364E-03
1
              HEAD IN LAYER   2 AT END OF TIME STEP  47 IN STRESS PERIOD    3
  ---------------------------------------------------------------------------

            1           2           3           4           5           6           7           8           9          10
 ........................................................................................................................
   1    9.999       9.651       9.229       8.671       7.924       6.946       5.675       4.074       2.161      5.9563E-03
   2    9.999       9.633       9.186       8.592       7.818       6.866       5.629       4.054       2.154      5.9353E-03
   3    9.999       9.595       9.086       8.390       7.516       6.660       5.525       4.009       2.138      5.8929E-03
   4    9.999       9.542       8.928       7.998       6.732       6.257       5.358       3.948       2.119      5.8388E-03
   5    9.999       9.507       8.793       7.480       4.410       5.720       5.214       3.906       2.107      5.8076E-03
   6    9.999       9.543       8.928       7.999       6.733       6.258       5.359       3.948       2.119      5.8391E-03
   7    9.999       9.596       9.087       8.392       7.518       6.662       5.526       4.010       2.139      5.8938E-03
   8    9.999       9.635       9.190       8.598       7.826       6.872       5.634       4.056       2.155      5.9382E-03
   9    9.999       9.657       9.242       8.690       7.946       6.965       5.687       4.081       2.164      5.9640E-03
  10    9.999       9.665       9.262       8.723       7.987       6.998       5.708       4.091       2.168      5.9748E-03
1
              HEAD IN LAYER   3 AT END OF TIME STEP  47 IN STRESS PERIOD    3
  ---------------------------------------------------------------------------

            1           2           3           4           5           6           7           8           9          10
 ........................................................................................................................
   1    9.999       9.647       9.222       8.659       7.909       6.930       5.659       4.060       2.151      6.3806E-03
   2    9.999       9.629       9.177       8.579       7.802       6.848       5.612       4.039       2.143      6.3575E-03
   3    9.999       9.590       9.076       8.374       7.497       6.639       5.506       3.993       2.127      6.3108E-03
   4    9.999       9.536       8.916       7.980       6.718       6.235       5.337       3.931       2.107      6.2518E-03
   5    9.999       9.500       8.779       7.467       4.741       5.706       5.193       3.889       2.096      6.2179E-03
   6    9.999       9.537       8.916       7.980       6.719       6.235       5.338       3.931       2.107      6.2522E-03
   7    9.999       9.591       9.077       8.377       7.499       6.642       5.507       3.994       2.127      6.3120E-03
   8    9.999       9.631       9.182       8.586       7.810       6.855       5.617       4.041       2.144      6.3607E-03
   9    9.999       9.653       9.235       8.679       7.932       6.950       5.672       4.067       2.154      6.3892E-03
  10    9.999       9.662       9.255       8.713       7.974       6.984       5.693       4.078       2.158      6.4013E-03
1
              HEAD IN LAYER   4 AT END OF TIME STEP  47 IN STRESS PERIOD    3
  ---------------------------------------------------------------------------

            1           2           3           4           5           6           7           8           9          10
 ........................................................................................................................
   1    9.999       9.645       9.218       8.654       7.902       6.922       5.651       4.053       2.145      6.4128E-03
   2    9.999       9.627       9.173       8.572       7.794       6.839       5.604       4.031       2.138      6.3892E-03
   3    9.999       9.587       9.070       8.367       7.487       6.629       5.496       3.985       2.122      6.3416E-03
   4    9.999       9.533       8.909       7.970       6.713       6.223       5.327       3.922       2.101      6.2816E-03
   5    9.999       9.497       8.773       7.463       4.899       5.701       5.182       3.880       2.090      6.2472E-03
   6    9.999       9.534       8.910       7.971       6.713       6.224       5.328       3.922       2.102      6.2819E-03
   7    9.999       9.588       9.072       8.369       7.490       6.632       5.498       3.986       2.122      6.3428E-03
   8    9.999       9.629       9.178       8.579       7.802       6.846       5.609       4.034       2.139      6.3926E-03
   9    9.999       9.651       9.231       8.674       7.926       6.942       5.664       4.060       2.148      6.4217E-03
  10    9.999       9.660       9.252       8.708       7.968       6.977       5.685       4.071       2.153      6.4342E-03

 HEAD WILL BE SAVED ON UNIT   51 AT END OF TIME STEP   47, STRESS PERIOD    3

 DRAWDOWN WILL BE SAVED ON UNIT   52 AT END OF TIME STEP   47, STRESS PERIOD    3
1
  VOLUMETRIC BUDGET FOR ENTIRE MODEL AT END OF TIME STEP   47, STRESS PERIOD   3
  ------------------------------------------------------------------------------

     CUMULATIVE VOLUMES      L**3       RATES FOR THIS TIME STEP      L**3/T
     ------------------                 ------------------------

           IN:                                      IN:
           ---                                      ---
             STORAGE =      389828.9688               STORAGE =        1346.2051
       CONSTANT HEAD =           0.0000         CONSTANT HEAD =           0.0000
               WELLS =           0.0000                 WELLS =           0.0000
     HEAD DEP BOUNDS =        9846.7217       HEAD DEP BOUNDS =         237.7776

            TOTAL IN =      399675.6875              TOTAL IN =        1583.9827

          OUT:                                     OUT:
          ----                                     ----
             STORAGE =           0.0000               STORAGE =           0.0000
       CONSTANT HEAD =           0.0000         CONSTANT HEAD =           0.0000
               WELLS =       23500.0000                 WELLS =         500.0000
     HEAD DEP BOUNDS =      376177.1875       HEAD DEP BOUNDS =        1083.9928

           TOTAL OUT =      399677.1875             TOTAL OUT =        1583.9928

            IN - OUT =          -1.5000              IN - OUT =      -1.0132E-02

 PERCENT DISCREPANCY =          -0.00     PERCENT DISCREPANCY =          -0.00






         TIME SUMMARY AT END OF TIME STEP   47 IN STRESS PERIOD    3
                    SECONDS     MINUTES      HOURS       DAYS        YEARS
                    -----------------------------------------------------------
   TIME STEP LENGTH  86400.      1440.0      24.000      1.0000     2.73785E-03
 STRESS PERIOD TIME 4.06080E+06  67680.      1128.0      47.000     0.12868    
         TOTAL TIME 1.27872E+07 2.13120E+05  3552.0      148.00     0.40520    
1
 
 SOLVING FOR HEAD 

 OUTPUT CONTROL FOR STRESS PERIOD    3   TIME STEP   48
    SAVE HEAD FOR ALL LAYERS
    SAVE DRAWDOWN FOR ALL LAYERS
    SAVE BUDGET
    PRINT HEAD FOR ALL LAYERS
    PRINT BUDGET
 UBDSV1 SAVING "         STORAGE" ON UNIT  53 AT TIME STEP 48, STRESS PERIOD   3
 UBDSV2 SAVING "   CONSTANT HEAD" ON UNIT  53 AT TIME STEP 48, STRESS PERIOD   3
 UBDSV1 SAVING "FLOW RIGHT FACE " ON UNIT  53 AT TIME STEP 48, STRESS PERIOD   3
 UBDSV1 SAVING "FLOW FRONT FACE " ON UNIT  53 AT TIME STEP 48, STRESS PERIOD   3
 UBDSV1 SAVING "FLOW LOWER FACE " ON UNIT  53 AT TIME STEP 48, STRESS PERIOD   3
1
              HEAD IN LAYER   1 AT END OF TIME STEP  48 IN STRESS PERIOD    3
  ---------------------------------------------------------------------------

            1           2           3           4           5           6           7           8           9          10
 ........................................................................................................................
   1    9.999       9.651       9.231       8.672       7.926       6.948       5.677       4.078       2.165      3.1138E-03
   2    9.999       9.634       9.187       8.594       7.821       6.868       5.632       4.057       2.157      3.1019E-03
   3    9.999       9.596       9.088       8.392       7.519       6.662       5.527       4.012       2.142      3.0778E-03
   4    9.999       9.544       8.930       8.001       6.731       6.259       5.360       3.950       2.122      3.0471E-03
   5    9.999       9.508       8.795       7.482       3.950       5.716       5.216       3.909       2.111      3.0294E-03
   6    9.999       9.544       8.931       8.002       6.732       6.260       5.361       3.950       2.122      3.0473E-03
   7    9.999       9.597       9.089       8.395       7.521       6.664       5.529       4.013       2.142      3.0784E-03
   8    9.999       9.636       9.192       8.600       7.828       6.875       5.636       4.059       2.158      3.1036E-03
   9    9.999       9.657       9.243       8.691       7.948       6.967       5.690       4.084       2.168      3.1184E-03
  10    9.999       9.666       9.263       8.724       7.989       7.000       5.710       4.095       2.172      3.1246E-03
1
              HEAD IN LAYER   2 AT END OF TIME STEP  48 IN STRESS PERIOD    3
  ---------------------------------------------------------------------------

            1           2           3           4           5           6           7           8           9          10
 ........................................................................................................................
   1    9.999       9.646       9.219       8.656       7.906       6.927       5.657       4.060       2.153      5.9342E-03
   2    9.999       9.627       9.175       8.575       7.798       6.845       5.610       4.039       2.145      5.9123E-03
   3    9.999       9.588       9.073       8.370       7.492       6.635       5.503       3.993       2.129      5.8682E-03
   4    9.999       9.535       8.912       7.975       6.704       6.229       5.334       3.930       2.109      5.8125E-03
   5    9.999       9.499       8.776       7.456       4.378       5.690       5.189       3.888       2.098      5.7805E-03
   6    9.999       9.535       8.913       7.976       6.705       6.230       5.335       3.930       2.109      5.8129E-03
   7    9.999       9.589       9.074       8.373       7.495       6.638       5.505       3.994       2.130      5.8693E-03
   8    9.999       9.630       9.179       8.582       7.806       6.852       5.615       4.042       2.146      5.9154E-03
   9    9.999       9.652       9.232       8.676       7.929       6.947       5.670       4.068       2.156      5.9425E-03
  10    9.999       9.661       9.253       8.710       7.971       6.981       5.691       4.078       2.160      5.9539E-03
1
              HEAD IN LAYER   3 AT END OF TIME STEP  48 IN STRESS PERIOD    3
  ---------------------------------------------------------------------------

            1           2           3           4           5           6           7           8           9          10
 ........................................................................................................................
   1    9.999       9.642       9.212       8.645       7.891       6.911       5.641       4.046       2.143      6.3572E-03
   2    9.999       9.623       9.166       8.562       7.782       6.827       5.593       4.024       2.135      6.3331E-03
   3    9.999       9.583       9.062       8.355       7.473       6.615       5.485       3.977       2.118      6.2847E-03
   4    9.999       9.529       8.900       7.957       6.690       6.207       5.314       3.913       2.098      6.2239E-03
   5    9.999       9.492       8.763       7.443       4.709       5.676       5.168       3.871       2.086      6.1892E-03
   6    9.999       9.529       8.900       7.957       6.691       6.207       5.314       3.913       2.098      6.2243E-03
   7    9.999       9.584       9.064       8.357       7.476       6.618       5.486       3.978       2.119      6.2859E-03
   8    9.999       9.625       9.171       8.570       7.791       6.835       5.598       4.027       2.136      6.3366E-03
   9    9.999       9.648       9.225       8.665       7.916       6.932       5.655       4.054       2.146      6.3664E-03
  10    9.999       9.657       9.246       8.700       7.959       6.967       5.677       4.065       2.150      6.3792E-03
1
              HEAD IN LAYER   4 AT END OF TIME STEP  48 IN STRESS PERIOD    3
  ---------------------------------------------------------------------------

            1           2           3           4           5           6           7           8           9          10
 ........................................................................................................................
   1    9.999       9.640       9.208       8.639       7.884       6.903       5.633       4.039       2.138      6.3894E-03
   2    9.999       9.621       9.162       8.556       7.774       6.819       5.585       4.017       2.129      6.3647E-03
   3    9.999       9.581       9.057       8.347       7.464       6.605       5.475       3.969       2.113      6.3154E-03
   4    9.999       9.526       8.894       7.948       6.685       6.196       5.303       3.905       2.092      6.2536E-03
   5    9.999       9.489       8.756       7.438       4.868       5.671       5.157       3.862       2.080      6.2184E-03
   6    9.999       9.526       8.894       7.948       6.686       6.196       5.304       3.905       2.092      6.2540E-03
   7    9.999       9.582       9.059       8.350       7.466       6.608       5.477       3.970       2.113      6.3167E-03
   8    9.999       9.623       9.167       8.563       7.783       6.826       5.590       4.019       2.131      6.3684E-03
   9    9.999       9.646       9.222       8.660       7.909       6.924       5.647       4.047       2.141      6.3989E-03
  10    9.999       9.656       9.243       8.695       7.952       6.960       5.669       4.058       2.145      6.4120E-03

 HEAD WILL BE SAVED ON UNIT   51 AT END OF TIME STEP   48, STRESS PERIOD    3

 DRAWDOWN WILL BE SAVED ON UNIT   52 AT END OF TIME STEP   48, STRESS PERIOD    3
1
  VOLUMETRIC BUDGET FOR ENTIRE MODEL AT END OF TIME STEP   48, STRESS PERIOD   3
  ------------------------------------------------------------------------------

     CUMULATIVE VOLUMES      L**3       RATES FOR THIS TIME STEP      L**3/T
     ------------------                 ------------------------

           IN:                                      IN:
           ---                                      ---
             STORAGE =      391167.0625               STORAGE =        1338.0950
       CONSTANT HEAD =           0.0000         CONSTANT HEAD =           0.0000
               WELLS =           0.0000                 WELLS =           0.0000
     HEAD DEP BOUNDS =       10088.1904       HEAD DEP BOUNDS =         241.4686

            TOTAL IN =      401255.2500              TOTAL IN =        1579.5636

          OUT:                                     OUT:
          ----                                     ----
             STORAGE =           0.0000               STORAGE =           0.0000
       CONSTANT HEAD =           0.0000         CONSTANT HEAD =           0.0000
               WELLS =       24000.0000                 WELLS =         500.0000
     HEAD DEP BOUNDS =      377256.7812       HEAD DEP BOUNDS =        1079.5795

           TOTAL OUT =      401256.7812             TOTAL OUT =        1579.5795

            IN - OUT =          -1.5312              IN - OUT =      -1.5869E-02

 PERCENT DISCREPANCY =          -0.00     PERCENT DISCREPANCY =          -0.00






         TIME SUMMARY AT END OF TIME STEP   48 IN STRESS PERIOD    3
                    SECONDS     MINUTES      HOURS       DAYS        YEARS
                    -----------------------------------------------------------
   TIME STEP LENGTH  86400.      1440.0      24.000      1.0000     2.73785E-03
 STRESS PERIOD TIME 4.14720E+06  69120.      1152.0      48.000     0.13142    
         TOTAL TIME 1.28736E+07 2.14560E+05  3576.0      149.00     0.40794    
1
 
 SOLVING FOR HEAD 

 OUTPUT CONTROL FOR STRESS PERIOD    3   TIME STEP   49
    SAVE HEAD FOR ALL LAYERS
    SAVE DRAWDOWN FOR ALL LAYERS
    SAVE BUDGET
    PRINT HEAD FOR ALL LAYERS
    PRINT BUDGET
 UBDSV1 SAVING "         STORAGE" ON UNIT  53 AT TIME STEP 49, STRESS PERIOD   3
 UBDSV2 SAVING "   CONSTANT HEAD" ON UNIT  53 AT TIME STEP 49, STRESS PERIOD   3
 UBDSV1 SAVING "FLOW RIGHT FACE " ON UNIT  53 AT TIME STEP 49, STRESS PERIOD   3
 UBDSV1 SAVING "FLOW FRONT FACE " ON UNIT  53 AT TIME STEP 49, STRESS PERIOD   3
 UBDSV1 SAVING "FLOW LOWER FACE " ON UNIT  53 AT TIME STEP 49, STRESS PERIOD   3
1
              HEAD IN LAYER   1 AT END OF TIME STEP  49 IN STRESS PERIOD    3
  ---------------------------------------------------------------------------

            1           2           3           4           5           6           7           8           9          10
 ........................................................................................................................
   1    9.999       9.646       9.221       8.658       7.908       6.929       5.660       4.064       2.157      3.1014E-03
   2    9.999       9.628       9.176       8.577       7.801       6.847       5.613       4.042       2.149      3.0891E-03
   3    9.999       9.589       9.074       8.373       7.495       6.638       5.506       3.996       2.133      3.0638E-03
   4    9.999       9.536       8.915       7.978       6.703       6.231       5.336       3.933       2.113      3.0322E-03
   5    9.999       9.500       8.779       7.457       3.918       5.686       5.190       3.890       2.101      3.0142E-03
   6    9.999       9.536       8.915       7.979       6.704       6.232       5.337       3.933       2.113      3.0324E-03
   7    9.999       9.590       9.076       8.375       7.497       6.640       5.507       3.997       2.133      3.0645E-03
   8    9.999       9.630       9.181       8.584       7.809       6.854       5.618       4.045       2.150      3.0908E-03
   9    9.999       9.652       9.234       8.678       7.931       6.949       5.673       4.071       2.160      3.1061E-03
  10    9.999       9.661       9.254       8.712       7.973       6.984       5.694       4.082       2.164      3.1126E-03
1
              HEAD IN LAYER   2 AT END OF TIME STEP  49 IN STRESS PERIOD    3
  ---------------------------------------------------------------------------

            1           2           3           4           5           6           7           8           9          10
 ........................................................................................................................
   1    9.999       9.641       9.209       8.641       7.888       6.908       5.639       4.046       2.145      5.9123E-03
   2    9.999       9.622       9.163       8.559       7.779       6.824       5.591       4.024       2.137      5.8895E-03
   3    9.999       9.582       9.059       8.351       7.468       6.611       5.482       3.977       2.121      5.8437E-03
   4    9.999       9.527       8.897       7.952       6.676       6.201       5.310       3.913       2.100      5.7864E-03
   5    9.999       9.491       8.759       7.431       4.346       5.661       5.164       3.870       2.088      5.7536E-03
   6    9.999       9.527       8.897       7.953       6.677       6.202       5.311       3.913       2.100      5.7867E-03
   7    9.999       9.583       9.061       8.353       7.471       6.614       5.484       3.978       2.121      5.8449E-03
   8    9.999       9.624       9.168       8.566       7.787       6.831       5.596       4.027       2.138      5.8928E-03
   9    9.999       9.647       9.223       8.662       7.912       6.929       5.653       4.054       2.148      5.9211E-03
  10    9.999       9.656       9.244       8.698       7.956       6.964       5.675       4.065       2.153      5.9332E-03
1
              HEAD IN LAYER   3 AT END OF TIME STEP  49 IN STRESS PERIOD    3
  ---------------------------------------------------------------------------

            1           2           3           4           5           6           7           8           9          10
 ........................................................................................................................
   1    9.999       9.637       9.201       8.630       7.874       6.892       5.623       4.032       2.135      6.3339E-03
   2    9.999       9.617       9.155       8.546       7.763       6.807       5.574       4.009       2.126      6.3088E-03
   3    9.999       9.577       9.049       8.335       7.450       6.591       5.463       3.961       2.110      6.2587E-03
   4    9.999       9.521       8.885       7.934       6.663       6.179       5.290       3.896       2.088      6.1962E-03
   5    9.999       9.484       8.746       7.418       4.678       5.647       5.143       3.853       2.076      6.1607E-03
   6    9.999       9.521       8.885       7.935       6.663       6.180       5.290       3.896       2.089      6.1966E-03
   7    9.999       9.578       9.051       8.338       7.452       6.594       5.465       3.962       2.110      6.2600E-03
   8    9.999       9.620       9.160       8.554       7.771       6.814       5.580       4.012       2.128      6.3126E-03
   9    9.999       9.643       9.216       8.652       7.899       6.914       5.638       4.040       2.138      6.3438E-03
  10    9.999       9.653       9.238       8.688       7.943       6.950       5.661       4.052       2.143      6.3572E-03
1
              HEAD IN LAYER   4 AT END OF TIME STEP  49 IN STRESS PERIOD    3
  ---------------------------------------------------------------------------

            1           2           3           4           5           6           7           8           9          10
 ........................................................................................................................
   1    9.999       9.635       9.197       8.624       7.866       6.884       5.615       4.025       2.130      6.3660E-03
   2    9.999       9.615       9.150       8.540       7.755       6.798       5.566       4.002       2.121      6.3403E-03
   3    9.999       9.574       9.044       8.328       7.440       6.581       5.454       3.953       2.104      6.2893E-03
   4    9.999       9.518       8.878       7.925       6.657       6.168       5.280       3.887       2.083      6.2257E-03
   5    9.999       9.481       8.740       7.414       4.837       5.642       5.133       3.844       2.071      6.1898E-03
   6    9.999       9.518       8.879       7.926       6.658       6.169       5.280       3.888       2.083      6.2262E-03
   7    9.999       9.575       9.045       8.330       7.443       6.584       5.456       3.954       2.105      6.2907E-03
   8    9.999       9.618       9.156       8.548       7.764       6.806       5.571       4.005       2.123      6.3443E-03
   9    9.999       9.642       9.212       8.646       7.892       6.906       5.630       4.033       2.133      6.3762E-03
  10    9.999       9.651       9.234       8.683       7.937       6.943       5.653       4.045       2.138      6.3899E-03

 HEAD WILL BE SAVED ON UNIT   51 AT END OF TIME STEP   49, STRESS PERIOD    3

 DRAWDOWN WILL BE SAVED ON UNIT   52 AT END OF TIME STEP   49, STRESS PERIOD    3
1
  VOLUMETRIC BUDGET FOR ENTIRE MODEL AT END OF TIME STEP   49, STRESS PERIOD   3
  ------------------------------------------------------------------------------

     CUMULATIVE VOLUMES      L**3       RATES FOR THIS TIME STEP      L**3/T
     ------------------                 ------------------------

           IN:                                      IN:
           ---                                      ---
             STORAGE =      392497.0625               STORAGE =        1330.0051
       CONSTANT HEAD =           0.0000         CONSTANT HEAD =           0.0000
               WELLS =           0.0000                 WELLS =           0.0000
     HEAD DEP BOUNDS =       10333.3682       HEAD DEP BOUNDS =         245.1774

            TOTAL IN =      402830.4375              TOTAL IN =        1575.1825

          OUT:                                     OUT:
          ----                                     ----
             STORAGE =           0.0000               STORAGE =           0.0000
       CONSTANT HEAD =           0.0000         CONSTANT HEAD =           0.0000
               WELLS =       24500.0000                 WELLS =         500.0000
     HEAD DEP BOUNDS =      378331.9688       HEAD DEP BOUNDS =        1075.1907

           TOTAL OUT =      402831.9688             TOTAL OUT =        1575.1907

            IN - OUT =          -1.5312              IN - OUT =      -8.1787E-03

 PERCENT DISCREPANCY =          -0.00     PERCENT DISCREPANCY =          -0.00






         TIME SUMMARY AT END OF TIME STEP   49 IN STRESS PERIOD    3
                    SECONDS     MINUTES      HOURS       DAYS        YEARS
                    -----------------------------------------------------------
   TIME STEP LENGTH  86400.      1440.0      24.000      1.0000     2.73785E-03
 STRESS PERIOD TIME 4.23360E+06  70560.      1176.0      49.000     0.13415    
         TOTAL TIME 1.29600E+07 2.16000E+05  3600.0      150.00     0.41068    
1
 
 SOLVING FOR HEAD 

 OUTPUT CONTROL FOR STRESS PERIOD    3   TIME STEP   50
    SAVE HEAD FOR ALL LAYERS
    SAVE DRAWDOWN FOR ALL LAYERS
    SAVE BUDGET
    PRINT HEAD FOR ALL LAYERS
    PRINT BUDGET
 UBDSV1 SAVING "         STORAGE" ON UNIT  53 AT TIME STEP 50, STRESS PERIOD   3
 UBDSV2 SAVING "   CONSTANT HEAD" ON UNIT  53 AT TIME STEP 50, STRESS PERIOD   3
 UBDSV1 SAVING "FLOW RIGHT FACE " ON UNIT  53 AT TIME STEP 50, STRESS PERIOD   3
 UBDSV1 SAVING "FLOW FRONT FACE " ON UNIT  53 AT TIME STEP 50, STRESS PERIOD   3
 UBDSV1 SAVING "FLOW LOWER FACE " ON UNIT  53 AT TIME STEP 50, STRESS PERIOD   3
1
              HEAD IN LAYER   1 AT END OF TIME STEP  50 IN STRESS PERIOD    3
  ---------------------------------------------------------------------------

            1           2           3           4           5           6           7           8           9          10
 ........................................................................................................................
   1    9.999       9.641       9.210       8.643       7.890       6.910       5.642       4.050       2.149      3.0891E-03
   2    9.999       9.622       9.165       8.561       7.781       6.826       5.594       4.027       2.141      3.0761E-03
   3    9.999       9.583       9.061       8.353       7.471       6.614       5.485       3.980       2.124      3.0502E-03
   4    9.999       9.528       8.899       7.955       6.675       6.203       5.312       3.915       2.103      3.0175E-03
   5    9.999       9.492       8.762       7.432       3.887       5.656       5.165       3.872       2.091      2.9990E-03
   6    9.999       9.528       8.899       7.956       6.676       6.204       5.313       3.915       2.103      3.0177E-03
   7    9.999       9.584       9.063       8.356       7.474       6.616       5.486       3.981       2.125      3.0508E-03
   8    9.999       9.625       9.170       8.568       7.789       6.834       5.599       4.030       2.142      3.0780E-03
   9    9.999       9.648       9.224       8.664       7.915       6.931       5.656       4.057       2.152      3.0941E-03
  10    9.999       9.657       9.246       8.699       7.958       6.967       5.678       4.069       2.157      3.1011E-03
1
              HEAD IN LAYER   2 AT END OF TIME STEP  50 IN STRESS PERIOD    3
  ---------------------------------------------------------------------------

            1           2           3           4           5           6           7           8           9          10
 ........................................................................................................................
   1    9.999       9.635       9.199       8.627       7.870       6.889       5.622       4.033       2.137      5.8905E-03
   2    9.999       9.616       9.152       8.542       7.759       6.803       5.572       4.010       2.129      5.8667E-03
   3    9.999       9.575       9.046       8.331       7.445       6.587       5.461       3.961       2.112      5.8194E-03
   4    9.999       9.519       8.881       7.929       6.649       6.174       5.287       3.895       2.091      5.7604E-03
   5    9.999       9.482       8.743       7.407       4.315       5.631       5.139       3.852       2.078      5.7269E-03
   6    9.999       9.520       8.882       7.930       6.650       6.175       5.287       3.896       2.091      5.7608E-03
   7    9.999       9.576       9.048       8.334       7.448       6.590       5.463       3.962       2.112      5.8207E-03
   8    9.999       9.619       9.157       8.550       7.768       6.811       5.578       4.013       2.130      5.8704E-03
   9    9.999       9.642       9.214       8.649       7.896       6.911       5.636       4.041       2.141      5.8999E-03
  10    9.999       9.652       9.236       8.685       7.940       6.948       5.659       4.052       2.145      5.9126E-03
1
              HEAD IN LAYER   3 AT END OF TIME STEP  50 IN STRESS PERIOD    3
  ---------------------------------------------------------------------------

            1           2           3           4           5           6           7           8           9          10
 ........................................................................................................................
   1    9.999       9.631       9.191       8.615       7.856       6.873       5.606       4.019       2.127      6.3107E-03
   2    9.999       9.612       9.143       8.530       7.743       6.786       5.556       3.995       2.118      6.2846E-03
   3    9.999       9.570       9.036       8.316       7.426       6.568       5.442       3.945       2.101      6.2328E-03
   4    9.999       9.513       8.869       7.911       6.635       6.152       5.266       3.879       2.079      6.1685E-03
   5    9.999       9.476       8.730       7.394       4.648       5.618       5.118       3.835       2.067      6.1323E-03
   6    9.999       9.514       8.870       7.912       6.636       6.153       5.267       3.879       2.079      6.1690E-03
   7    9.999       9.571       9.037       8.319       7.429       6.570       5.444       3.947       2.101      6.2343E-03
   8    9.999       9.614       9.149       8.538       7.752       6.794       5.561       3.998       2.120      6.2887E-03
   9    9.999       9.639       9.206       8.638       7.882       6.896       5.621       4.027       2.131      6.3213E-03
  10    9.999       9.649       9.229       8.675       7.928       6.933       5.645       4.039       2.135      6.3353E-03
1
              HEAD IN LAYER   4 AT END OF TIME STEP  50 IN STRESS PERIOD    3
  ---------------------------------------------------------------------------

            1           2           3           4           5           6           7           8           9          10
 ........................................................................................................................
   1    9.999       9.629       9.187       8.609       7.849       6.865       5.598       4.011       2.122      6.3428E-03
   2    9.999       9.609       9.139       8.523       7.735       6.777       5.547       3.987       2.113      6.3161E-03
   3    9.999       9.567       9.030       8.308       7.417       6.558       5.433       3.938       2.095      6.2633E-03
   4    9.999       9.510       8.863       7.902       6.630       6.141       5.256       3.870       2.073      6.1980E-03
   5    9.999       9.473       8.723       7.390       4.807       5.613       5.108       3.826       2.061      6.1613E-03
   6    9.999       9.511       8.864       7.903       6.631       6.142       5.257       3.871       2.074      6.1985E-03
   7    9.999       9.568       9.032       8.311       7.420       6.560       5.435       3.939       2.096      6.2649E-03
   8    9.999       9.612       9.145       8.532       7.744       6.786       5.553       3.991       2.115      6.3204E-03
   9    9.999       9.637       9.203       8.633       7.876       6.888       5.614       4.020       2.126      6.3536E-03
  10    9.999       9.647       9.226       8.670       7.922       6.926       5.637       4.032       2.130      6.3681E-03

 HEAD WILL BE SAVED ON UNIT   51 AT END OF TIME STEP   50, STRESS PERIOD    3

 DRAWDOWN WILL BE SAVED ON UNIT   52 AT END OF TIME STEP   50, STRESS PERIOD    3
1
  VOLUMETRIC BUDGET FOR ENTIRE MODEL AT END OF TIME STEP   50, STRESS PERIOD   3
  ------------------------------------------------------------------------------

     CUMULATIVE VOLUMES      L**3       RATES FOR THIS TIME STEP      L**3/T
     ------------------                 ------------------------

           IN:                                      IN:
           ---                                      ---
             STORAGE =      393819.0312               STORAGE =        1321.9601
       CONSTANT HEAD =           0.0000         CONSTANT HEAD =           0.0000
               WELLS =           0.0000                 WELLS =           0.0000
     HEAD DEP BOUNDS =       10582.2500       HEAD DEP BOUNDS =         248.8817

            TOTAL IN =      404401.2812              TOTAL IN =        1570.8418

          OUT:                                     OUT:
          ----                                     ----
             STORAGE =           0.0000               STORAGE =           0.0000
       CONSTANT HEAD =           0.0000         CONSTANT HEAD =           0.0000
               WELLS =       25000.0000                 WELLS =         500.0000
     HEAD DEP BOUNDS =      379402.8125       HEAD DEP BOUNDS =        1070.8323

           TOTAL OUT =      404402.8125             TOTAL OUT =        1570.8323

            IN - OUT =          -1.5312              IN - OUT =       9.5215E-03

 PERCENT DISCREPANCY =          -0.00     PERCENT DISCREPANCY =           0.00






         TIME SUMMARY AT END OF TIME STEP   50 IN STRESS PERIOD    3
                    SECONDS     MINUTES      HOURS       DAYS        YEARS
                    -----------------------------------------------------------
   TIME STEP LENGTH  86400.      1440.0      24.000      1.0000     2.73785E-03
 STRESS PERIOD TIME 4.32000E+06  72000.      1200.0      50.000     0.13689    
         TOTAL TIME 1.30464E+07 2.17440E+05  3624.0      151.00     0.41342    
1
 
 SOLVING FOR HEAD 

 OUTPUT CONTROL FOR STRESS PERIOD    3   TIME STEP   51
    SAVE HEAD FOR ALL LAYERS
    SAVE DRAWDOWN FOR ALL LAYERS
    SAVE BUDGET
    PRINT HEAD FOR ALL LAYERS
    PRINT BUDGET
 UBDSV1 SAVING "         STORAGE" ON UNIT  53 AT TIME STEP 51, STRESS PERIOD   3
 UBDSV2 SAVING "   CONSTANT HEAD" ON UNIT  53 AT TIME STEP 51, STRESS PERIOD   3
 UBDSV1 SAVING "FLOW RIGHT FACE " ON UNIT  53 AT TIME STEP 51, STRESS PERIOD   3
 UBDSV1 SAVING "FLOW FRONT FACE " ON UNIT  53 AT TIME STEP 51, STRESS PERIOD   3
 UBDSV1 SAVING "FLOW LOWER FACE " ON UNIT  53 AT TIME STEP 51, STRESS PERIOD   3
1
              HEAD IN LAYER   1 AT END OF TIME STEP  51 IN STRESS PERIOD    3
  ---------------------------------------------------------------------------

            1           2           3           4           5           6           7           8           9          10
 ........................................................................................................................
   1    9.999       9.636       9.200       8.628       7.872       6.891       5.624       4.036       2.141      3.0767E-03
   2    9.999       9.617       9.153       8.544       7.761       6.806       5.575       4.013       2.132      3.0631E-03
   3    9.999       9.576       9.048       8.334       7.448       6.590       5.463       3.964       2.115      3.0363E-03
   4    9.999       9.521       8.884       7.933       6.648       6.176       5.289       3.898       2.094      3.0029E-03
   5    9.999       9.484       8.746       7.408       3.856       5.627       5.141       3.854       2.082      2.9839E-03
   6    9.999       9.521       8.884       7.933       6.648       6.176       5.289       3.898       2.094      3.0031E-03
   7    9.999       9.577       9.049       8.336       7.451       6.592       5.465       3.965       2.116      3.0371E-03
   8    9.999       9.619       9.159       8.552       7.770       6.813       5.580       4.016       2.134      3.0653E-03
   9    9.999       9.643       9.215       8.650       7.898       6.913       5.639       4.044       2.145      3.0821E-03
  10    9.999       9.653       9.237       8.687       7.942       6.950       5.662       4.056       2.149      3.0895E-03
1
              HEAD IN LAYER   2 AT END OF TIME STEP  51 IN STRESS PERIOD    3
  ---------------------------------------------------------------------------

            1           2           3           4           5           6           7           8           9          10
 ........................................................................................................................
   1    9.999       9.630       9.189       8.612       7.852       6.870       5.604       4.019       2.130      5.8688E-03
   2    9.999       9.610       9.141       8.526       7.739       6.782       5.554       3.995       2.121      5.8441E-03
   3    9.999       9.569       9.033       8.312       7.422       6.564       5.440       3.945       2.103      5.7952E-03
   4    9.999       9.512       8.866       7.907       6.622       6.147       5.263       3.878       2.081      5.7345E-03
   5    9.999       9.474       8.727       7.383       4.284       5.603       5.115       3.834       2.069      5.7003E-03
   6    9.999       9.512       8.867       7.908       6.623       6.148       5.264       3.878       2.081      5.7349E-03
   7    9.999       9.569       9.035       8.315       7.425       6.566       5.442       3.946       2.104      5.7966E-03
   8    9.999       9.613       9.146       8.534       7.748       6.791       5.559       3.998       2.122      5.8480E-03
   9    9.999       9.637       9.204       8.635       7.879       6.893       5.620       4.027       2.133      5.8788E-03
  10    9.999       9.648       9.227       8.673       7.925       6.931       5.643       4.040       2.138      5.8922E-03
1
              HEAD IN LAYER   3 AT END OF TIME STEP  51 IN STRESS PERIOD    3
  ---------------------------------------------------------------------------

            1           2           3           4           5           6           7           8           9          10
 ........................................................................................................................
   1    9.999       9.626       9.181       8.601       7.838       6.854       5.588       4.005       2.119      6.2877E-03
   2    9.999       9.606       9.132       8.513       7.723       6.765       5.537       3.980       2.110      6.2606E-03
   3    9.999       9.563       9.022       8.297       7.403       6.544       5.421       3.930       2.092      6.2071E-03
   4    9.999       9.506       8.854       7.889       6.608       6.125       5.243       3.861       2.070      6.1411E-03
   5    9.999       9.468       8.714       7.370       4.618       5.589       5.094       3.817       2.057      6.1041E-03
   6    9.999       9.506       8.855       7.890       6.609       6.126       5.244       3.862       2.070      6.1416E-03
   7    9.999       9.564       9.024       8.300       7.406       6.547       5.423       3.931       2.093      6.2087E-03
   8    9.999       9.609       9.138       8.522       7.733       6.774       5.543       3.984       2.112      6.2650E-03
   9    9.999       9.634       9.197       8.625       7.866       6.878       5.604       4.014       2.123      6.2989E-03
  10    9.999       9.644       9.220       8.663       7.912       6.917       5.629       4.026       2.128      6.3137E-03
1
              HEAD IN LAYER   4 AT END OF TIME STEP  51 IN STRESS PERIOD    3
  ---------------------------------------------------------------------------

            1           2           3           4           5           6           7           8           9          10
 ........................................................................................................................
   1    9.999       9.624       9.177       8.595       7.831       6.846       5.580       3.998       2.114      6.3197E-03
   2    9.999       9.604       9.128       8.507       7.715       6.757       5.528       3.973       2.105      6.2920E-03
   3    9.999       9.561       9.017       8.289       7.394       6.534       5.412       3.922       2.087      6.2375E-03
   4    9.999       9.503       8.848       7.880       6.603       6.114       5.233       3.853       2.064      6.1705E-03
   5    9.999       9.465       8.707       7.366       4.777       5.584       5.084       3.809       2.052      6.1330E-03
   6    9.999       9.503       8.848       7.881       6.604       6.115       5.234       3.854       2.064      6.1710E-03
   7    9.999       9.562       9.019       8.292       7.397       6.537       5.414       3.923       2.087      6.2392E-03
   8    9.999       9.607       9.134       8.516       7.725       6.765       5.535       3.977       2.107      6.2966E-03
   9    9.999       9.632       9.193       8.619       7.859       6.871       5.597       4.007       2.118      6.3312E-03
  10    9.999       9.643       9.217       8.658       7.906       6.910       5.622       4.020       2.123      6.3463E-03

 HEAD WILL BE SAVED ON UNIT   51 AT END OF TIME STEP   51, STRESS PERIOD    3

 DRAWDOWN WILL BE SAVED ON UNIT   52 AT END OF TIME STEP   51, STRESS PERIOD    3
1
  VOLUMETRIC BUDGET FOR ENTIRE MODEL AT END OF TIME STEP   51, STRESS PERIOD   3
  ------------------------------------------------------------------------------

     CUMULATIVE VOLUMES      L**3       RATES FOR THIS TIME STEP      L**3/T
     ------------------                 ------------------------

           IN:                                      IN:
           ---                                      ---
             STORAGE =      395132.9688               STORAGE =        1313.9320
       CONSTANT HEAD =           0.0000         CONSTANT HEAD =           0.0000
               WELLS =           0.0000                 WELLS =           0.0000
     HEAD DEP BOUNDS =       10834.7988       HEAD DEP BOUNDS =         252.5489

            TOTAL IN =      405967.7812              TOTAL IN =        1566.4808

          OUT:                                     OUT:
          ----                                     ----
             STORAGE =           0.0000               STORAGE =           0.0000
       CONSTANT HEAD =           0.0000         CONSTANT HEAD =           0.0000
               WELLS =       25500.0000                 WELLS =         500.0000
     HEAD DEP BOUNDS =      380469.3125       HEAD DEP BOUNDS =        1066.4950

           TOTAL OUT =      405969.3125             TOTAL OUT =        1566.4950

            IN - OUT =          -1.5312              IN - OUT =      -1.4160E-02

 PERCENT DISCREPANCY =          -0.00     PERCENT DISCREPANCY =          -0.00






         TIME SUMMARY AT END OF TIME STEP   51 IN STRESS PERIOD    3
                    SECONDS     MINUTES      HOURS       DAYS        YEARS
                    -----------------------------------------------------------
   TIME STEP LENGTH  86400.      1440.0      24.000      1.0000     2.73785E-03
 STRESS PERIOD TIME 4.40640E+06  73440.      1224.0      51.000     0.13963    
         TOTAL TIME 1.31328E+07 2.18880E+05  3648.0      152.00     0.41615    
1
 
 SOLVING FOR HEAD 

 OUTPUT CONTROL FOR STRESS PERIOD    3   TIME STEP   52
    SAVE HEAD FOR ALL LAYERS
    SAVE DRAWDOWN FOR ALL LAYERS
    SAVE BUDGET
    PRINT HEAD FOR ALL LAYERS
    PRINT BUDGET
 UBDSV1 SAVING "         STORAGE" ON UNIT  53 AT TIME STEP 52, STRESS PERIOD   3
 UBDSV2 SAVING "   CONSTANT HEAD" ON UNIT  53 AT TIME STEP 52, STRESS PERIOD   3
 UBDSV1 SAVING "FLOW RIGHT FACE " ON UNIT  53 AT TIME STEP 52, STRESS PERIOD   3
 UBDSV1 SAVING "FLOW FRONT FACE " ON UNIT  53 AT TIME STEP 52, STRESS PERIOD   3
 UBDSV1 SAVING "FLOW LOWER FACE " ON UNIT  53 AT TIME STEP 52, STRESS PERIOD   3
1
              HEAD IN LAYER   1 AT END OF TIME STEP  52 IN STRESS PERIOD    3
  ---------------------------------------------------------------------------

            1           2           3           4           5           6           7           8           9          10
 ........................................................................................................................
   1    9.999       9.631       9.190       8.614       7.854       6.872       5.607       4.022       2.133      3.0644E-03
   2    9.999       9.611       9.142       8.528       7.741       6.785       5.556       3.998       2.124      3.0505E-03
   3    9.999       9.569       9.034       8.315       7.424       6.566       5.442       3.948       2.107      3.0227E-03
   4    9.999       9.513       8.868       7.910       6.620       6.148       5.265       3.881       2.084      2.9883E-03
   5    9.999       9.476       8.729       7.384       3.826       5.598       5.116       3.837       2.072      2.9691E-03
   6    9.999       9.513       8.869       7.911       6.621       6.149       5.266       3.881       2.085      2.9886E-03
   7    9.999       9.570       9.036       8.317       7.428       6.569       5.444       3.949       2.107      3.0235E-03
   8    9.999       9.614       9.148       8.536       7.751       6.793       5.562       4.001       2.126      3.0527E-03
   9    9.999       9.638       9.205       8.637       7.881       6.896       5.622       4.031       2.137      3.0702E-03
  10    9.999       9.648       9.228       8.674       7.927       6.933       5.646       4.043       2.142      3.0779E-03
1
              HEAD IN LAYER   2 AT END OF TIME STEP  52 IN STRESS PERIOD    3
  ---------------------------------------------------------------------------

            1           2           3           4           5           6           7           8           9          10
 ........................................................................................................................
   1    9.999       9.625       9.179       8.597       7.834       6.851       5.586       4.005       2.122      5.8472E-03
   2    9.999       9.605       9.129       8.510       7.719       6.762       5.535       3.980       2.113      5.8216E-03
   3    9.999       9.562       9.019       8.293       7.399       6.540       5.419       3.929       2.094      5.7711E-03
   4    9.999       9.504       8.851       7.885       6.595       6.120       5.240       3.861       2.072      5.7088E-03
   5    9.999       9.466       8.711       7.359       4.254       5.574       5.090       3.816       2.059      5.6739E-03
   6    9.999       9.505       8.851       7.886       6.596       6.121       5.241       3.861       2.072      5.7093E-03
   7    9.999       9.563       9.021       8.296       7.402       6.543       5.421       3.931       2.095      5.7726E-03
   8    9.999       9.607       9.135       8.519       7.729       6.771       5.541       3.984       2.114      5.8258E-03
   9    9.999       9.633       9.195       8.622       7.863       6.875       5.603       4.014       2.126      5.8579E-03
  10    9.999       9.643       9.218       8.660       7.909       6.914       5.628       4.027       2.131      5.8719E-03
1
              HEAD IN LAYER   3 AT END OF TIME STEP  52 IN STRESS PERIOD    3
  ---------------------------------------------------------------------------

            1           2           3           4           5           6           7           8           9          10
 ........................................................................................................................
   1    9.999       9.621       9.171       8.586       7.820       6.835       5.571       3.991       2.112      6.2648E-03
   2    9.999       9.600       9.121       8.497       7.703       6.745       5.518       3.966       2.102      6.2367E-03
   3    9.999       9.557       9.009       8.278       7.380       6.520       5.400       3.914       2.084      6.1815E-03
   4    9.999       9.498       8.839       7.867       6.582       6.098       5.220       3.844       2.061      6.1138E-03
   5    9.999       9.460       8.698       7.347       4.588       5.561       5.070       3.800       2.048      6.0761E-03
   6    9.999       9.499       8.839       7.868       6.583       6.099       5.221       3.845       2.061      6.1143E-03
   7    9.999       9.558       9.011       8.281       7.384       6.524       5.403       3.915       2.084      6.1832E-03
   8    9.999       9.603       9.127       8.506       7.714       6.754       5.524       3.970       2.104      6.2414E-03
   9    9.999       9.629       9.187       8.611       7.849       6.860       5.588       4.001       2.116      6.2767E-03
  10    9.999       9.640       9.212       8.650       7.897       6.900       5.613       4.014       2.121      6.2922E-03
1
              HEAD IN LAYER   4 AT END OF TIME STEP  52 IN STRESS PERIOD    3
  ---------------------------------------------------------------------------

            1           2           3           4           5           6           7           8           9          10
 ........................................................................................................................
   1    9.999       9.619       9.167       8.580       7.813       6.827       5.563       3.984       2.107      6.2967E-03
   2    9.999       9.598       9.116       8.491       7.696       6.736       5.510       3.959       2.097      6.2680E-03
   3    9.999       9.554       9.004       8.270       7.371       6.511       5.391       3.906       2.078      6.2118E-03
   4    9.999       9.495       8.833       7.858       6.577       6.088       5.210       3.836       2.055      6.1431E-03
   5    9.999       9.457       8.691       7.343       4.748       5.556       5.060       3.791       2.042      6.1049E-03
   6    9.999       9.496       8.833       7.859       6.578       6.089       5.211       3.837       2.055      6.1437E-03
   7    9.999       9.555       9.006       8.273       7.375       6.514       5.394       3.907       2.079      6.2136E-03
   8    9.999       9.601       9.123       8.500       7.706       6.745       5.516       3.962       2.099      6.2729E-03
   9    9.999       9.627       9.184       8.606       7.842       6.853       5.580       3.994       2.111      6.3090E-03
  10    9.999       9.638       9.208       8.645       7.891       6.893       5.606       4.007       2.116      6.3248E-03

 HEAD WILL BE SAVED ON UNIT   51 AT END OF TIME STEP   52, STRESS PERIOD    3

 DRAWDOWN WILL BE SAVED ON UNIT   52 AT END OF TIME STEP   52, STRESS PERIOD    3
1
  VOLUMETRIC BUDGET FOR ENTIRE MODEL AT END OF TIME STEP   52, STRESS PERIOD   3
  ------------------------------------------------------------------------------

     CUMULATIVE VOLUMES      L**3       RATES FOR THIS TIME STEP      L**3/T
     ------------------                 ------------------------

           IN:                                      IN:
           ---                                      ---
             STORAGE =      396438.9062               STORAGE =        1305.9468
       CONSTANT HEAD =           0.0000         CONSTANT HEAD =           0.0000
               WELLS =           0.0000                 WELLS =           0.0000
     HEAD DEP BOUNDS =       11091.0508       HEAD DEP BOUNDS =         256.2516

            TOTAL IN =      407529.9688              TOTAL IN =        1562.1985

          OUT:                                     OUT:
          ----                                     ----
             STORAGE =           0.0000               STORAGE =           0.0000
       CONSTANT HEAD =           0.0000         CONSTANT HEAD =           0.0000
               WELLS =       26000.0000                 WELLS =         500.0000
     HEAD DEP BOUNDS =      381531.5000       HEAD DEP BOUNDS =        1062.1864

           TOTAL OUT =      407531.5000             TOTAL OUT =        1562.1864

            IN - OUT =          -1.5312              IN - OUT =       1.2085E-02

 PERCENT DISCREPANCY =          -0.00     PERCENT DISCREPANCY =           0.00






         TIME SUMMARY AT END OF TIME STEP   52 IN STRESS PERIOD    3
                    SECONDS     MINUTES      HOURS       DAYS        YEARS
                    -----------------------------------------------------------
   TIME STEP LENGTH  86400.      1440.0      24.000      1.0000     2.73785E-03
 STRESS PERIOD TIME 4.49280E+06  74880.      1248.0      52.000     0.14237    
         TOTAL TIME 1.32192E+07 2.20320E+05  3672.0      153.00     0.41889    
1
 
 SOLVING FOR HEAD 

 OUTPUT CONTROL FOR STRESS PERIOD    3   TIME STEP   53
    SAVE HEAD FOR ALL LAYERS
    SAVE DRAWDOWN FOR ALL LAYERS
    SAVE BUDGET
    PRINT HEAD FOR ALL LAYERS
    PRINT BUDGET
 UBDSV1 SAVING "         STORAGE" ON UNIT  53 AT TIME STEP 53, STRESS PERIOD   3
 UBDSV2 SAVING "   CONSTANT HEAD" ON UNIT  53 AT TIME STEP 53, STRESS PERIOD   3
 UBDSV1 SAVING "FLOW RIGHT FACE " ON UNIT  53 AT TIME STEP 53, STRESS PERIOD   3
 UBDSV1 SAVING "FLOW FRONT FACE " ON UNIT  53 AT TIME STEP 53, STRESS PERIOD   3
 UBDSV1 SAVING "FLOW LOWER FACE " ON UNIT  53 AT TIME STEP 53, STRESS PERIOD   3
1
              HEAD IN LAYER   1 AT END OF TIME STEP  53 IN STRESS PERIOD    3
  ---------------------------------------------------------------------------

            1           2           3           4           5           6           7           8           9          10
 ........................................................................................................................
   1    9.999       9.626       9.180       8.599       7.836       6.853       5.589       4.008       2.125      3.0523E-03
   2    9.999       9.605       9.131       8.512       7.722       6.764       5.537       3.983       2.116      3.0378E-03
   3    9.999       9.563       9.021       8.295       7.401       6.542       5.421       3.932       2.098      3.0092E-03
   4    9.999       9.505       8.853       7.888       6.594       6.122       5.242       3.863       2.075      2.9740E-03
   5    9.999       9.468       8.713       7.360       3.796       5.570       5.092       3.819       2.062      2.9541E-03
   6    9.999       9.506       8.854       7.889       6.595       6.122       5.243       3.864       2.075      2.9742E-03
   7    9.999       9.564       9.023       8.298       7.405       6.545       5.423       3.933       2.098      3.0100E-03
   8    9.999       9.608       9.137       8.521       7.731       6.773       5.544       3.987       2.118      3.0402E-03
   9    9.999       9.633       9.196       8.623       7.865       6.878       5.606       4.017       2.129      3.0585E-03
  10    9.999       9.644       9.219       8.662       7.911       6.917       5.630       4.030       2.134      3.0663E-03
1
              HEAD IN LAYER   2 AT END OF TIME STEP  53 IN STRESS PERIOD    3
  ---------------------------------------------------------------------------

            1           2           3           4           5           6           7           8           9          10
 ........................................................................................................................
   1    9.999       9.620       9.168       8.583       7.817       6.832       5.569       3.991       2.114      5.8258E-03
   2    9.999       9.599       9.118       8.494       7.700       6.741       5.516       3.966       2.105      5.7992E-03
   3    9.999       9.555       9.006       8.274       7.376       6.516       5.398       3.914       2.086      5.7471E-03
   4    9.999       9.497       8.836       7.863       6.568       6.093       5.217       3.844       2.063      5.6833E-03
   5    9.999       9.459       8.695       7.335       4.224       5.546       5.066       3.799       2.050      5.6477E-03
   6    9.999       9.497       8.836       7.864       6.569       6.094       5.218       3.844       2.063      5.6838E-03
   7    9.999       9.556       9.008       8.277       7.379       6.520       5.400       3.915       2.086      5.7487E-03
   8    9.999       9.602       9.124       8.503       7.710       6.751       5.523       3.970       2.106      5.8037E-03
   9    9.999       9.628       9.185       8.608       7.846       6.858       5.586       4.001       2.118      5.8371E-03
  10    9.999       9.639       9.210       8.647       7.894       6.898       5.612       4.014       2.123      5.8517E-03
1
              HEAD IN LAYER   3 AT END OF TIME STEP  53 IN STRESS PERIOD    3
  ---------------------------------------------------------------------------

            1           2           3           4           5           6           7           8           9          10
 ........................................................................................................................
   1    9.999       9.616       9.160       8.571       7.802       6.816       5.553       3.977       2.104      6.2420E-03
   2    9.999       9.594       9.109       8.481       7.684       6.724       5.499       3.952       2.094      6.2129E-03
   3    9.999       9.550       8.996       8.259       7.358       6.497       5.380       3.898       2.075      6.1560E-03
   4    9.999       9.491       8.824       7.845       6.555       6.072       5.197       3.828       2.052      6.0866E-03
   5    9.999       9.452       8.682       7.324       4.559       5.533       5.046       3.782       2.039      6.0482E-03
   6    9.999       9.491       8.824       7.846       6.557       6.073       5.198       3.828       2.052      6.0872E-03
   7    9.999       9.551       8.998       8.262       7.361       6.500       5.382       3.900       2.076      6.1579E-03
   8    9.999       9.598       9.116       8.490       7.695       6.734       5.506       3.955       2.096      6.2180E-03
   9    9.999       9.624       9.178       8.597       7.833       6.843       5.571       3.988       2.108      6.2547E-03
  10    9.999       9.635       9.203       8.638       7.882       6.884       5.597       4.001       2.114      6.2708E-03
1
              HEAD IN LAYER   4 AT END OF TIME STEP  53 IN STRESS PERIOD    3
  ---------------------------------------------------------------------------

            1           2           3           4           5           6           7           8           9          10
 ........................................................................................................................
   1    9.999       9.614       9.157       8.565       7.795       6.809       5.545       3.971       2.099      6.2738E-03
   2    9.999       9.592       9.105       8.474       7.676       6.716       5.491       3.944       2.089      6.2442E-03
   3    9.999       9.548       8.991       8.251       7.348       6.487       5.371       3.891       2.070      6.1863E-03
   4    9.999       9.488       8.818       7.837       6.551       6.062       5.187       3.819       2.046      6.1159E-03
   5    9.999       9.449       8.676       7.319       4.719       5.528       5.036       3.774       2.033      6.0770E-03
   6    9.999       9.488       8.818       7.838       6.552       6.063       5.188       3.820       2.046      6.1165E-03
   7    9.999       9.549       8.993       8.255       7.352       6.491       5.373       3.892       2.070      6.1882E-03
   8    9.999       9.596       9.112       8.484       7.687       6.726       5.498       3.948       2.091      6.2494E-03
   9    9.999       9.622       9.174       8.592       7.826       6.835       5.564       3.981       2.103      6.2869E-03
  10    9.999       9.634       9.200       8.633       7.875       6.877       5.590       3.995       2.109      6.3034E-03

 HEAD WILL BE SAVED ON UNIT   51 AT END OF TIME STEP   53, STRESS PERIOD    3

 DRAWDOWN WILL BE SAVED ON UNIT   52 AT END OF TIME STEP   53, STRESS PERIOD    3
1
  VOLUMETRIC BUDGET FOR ENTIRE MODEL AT END OF TIME STEP   53, STRESS PERIOD   3
  ------------------------------------------------------------------------------

     CUMULATIVE VOLUMES      L**3       RATES FOR THIS TIME STEP      L**3/T
     ------------------                 ------------------------

           IN:                                      IN:
           ---                                      ---
             STORAGE =      397736.9062               STORAGE =        1297.9955
       CONSTANT HEAD =           0.0000         CONSTANT HEAD =           0.0000
               WELLS =           0.0000                 WELLS =           0.0000
     HEAD DEP BOUNDS =       11350.9639       HEAD DEP BOUNDS =         259.9127

            TOTAL IN =      409087.8750              TOTAL IN =        1557.9082

          OUT:                                     OUT:
          ----                                     ----
             STORAGE =           0.0000               STORAGE =           0.0000
       CONSTANT HEAD =           0.0000         CONSTANT HEAD =           0.0000
               WELLS =       26500.0000                 WELLS =         500.0000
     HEAD DEP BOUNDS =      382589.4062       HEAD DEP BOUNDS =        1057.9037

           TOTAL OUT =      409089.4062             TOTAL OUT =        1557.9037

            IN - OUT =          -1.5312              IN - OUT =       4.5166E-03

 PERCENT DISCREPANCY =          -0.00     PERCENT DISCREPANCY =           0.00






         TIME SUMMARY AT END OF TIME STEP   53 IN STRESS PERIOD    3
                    SECONDS     MINUTES      HOURS       DAYS        YEARS
                    -----------------------------------------------------------
   TIME STEP LENGTH  86400.      1440.0      24.000      1.0000     2.73785E-03
 STRESS PERIOD TIME 4.57920E+06  76320.      1272.0      53.000     0.14511    
         TOTAL TIME 1.33056E+07 2.21760E+05  3696.0      154.00     0.42163    
1
 
 SOLVING FOR HEAD 

 OUTPUT CONTROL FOR STRESS PERIOD    3   TIME STEP   54
    SAVE HEAD FOR ALL LAYERS
    SAVE DRAWDOWN FOR ALL LAYERS
    SAVE BUDGET
    PRINT HEAD FOR ALL LAYERS
    PRINT BUDGET
 UBDSV1 SAVING "         STORAGE" ON UNIT  53 AT TIME STEP 54, STRESS PERIOD   3
 UBDSV2 SAVING "   CONSTANT HEAD" ON UNIT  53 AT TIME STEP 54, STRESS PERIOD   3
 UBDSV1 SAVING "FLOW RIGHT FACE " ON UNIT  53 AT TIME STEP 54, STRESS PERIOD   3
 UBDSV1 SAVING "FLOW FRONT FACE " ON UNIT  53 AT TIME STEP 54, STRESS PERIOD   3
 UBDSV1 SAVING "FLOW LOWER FACE " ON UNIT  53 AT TIME STEP 54, STRESS PERIOD   3
1
              HEAD IN LAYER   1 AT END OF TIME STEP  54 IN STRESS PERIOD    3
  ---------------------------------------------------------------------------

            1           2           3           4           5           6           7           8           9          10
 ........................................................................................................................
   1    9.999       9.621       9.170       8.584       7.819       6.835       5.572       3.994       2.118      3.0403E-03
   2    9.999       9.600       9.119       8.496       7.702       6.744       5.519       3.969       2.108      3.0251E-03
   3    9.999       9.556       9.008       8.276       7.379       6.519       5.400       3.916       2.089      2.9956E-03
   4    9.999       9.498       8.838       7.866       6.567       6.095       5.219       3.846       2.066      2.9595E-03
   5    9.999       9.460       8.697       7.337       3.766       5.541       5.068       3.801       2.053      2.9394E-03
   6    9.999       9.498       8.839       7.867       6.568       6.096       5.220       3.847       2.066      2.9599E-03
   7    9.999       9.557       9.010       8.280       7.382       6.522       5.403       3.918       2.090      2.9965E-03
   8    9.999       9.603       9.126       8.505       7.712       6.753       5.525       3.973       2.110      3.0277E-03
   9    9.999       9.629       9.186       8.610       7.848       6.860       5.589       4.004       2.122      3.0467E-03
  10    9.999       9.639       9.211       8.649       7.896       6.900       5.615       4.017       2.127      3.0550E-03
1
              HEAD IN LAYER   2 AT END OF TIME STEP  54 IN STRESS PERIOD    3
  ---------------------------------------------------------------------------

            1           2           3           4           5           6           7           8           9          10
 ........................................................................................................................
   1    9.999       9.615       9.158       8.568       7.799       6.813       5.552       3.978       2.106      5.8044E-03
   2    9.999       9.593       9.107       8.477       7.680       6.721       5.498       3.952       2.097      5.7769E-03
   3    9.999       9.549       8.993       8.255       7.353       6.493       5.377       3.898       2.077      5.7232E-03
   4    9.999       9.489       8.821       7.841       6.542       6.067       5.194       3.827       2.054      5.6578E-03
   5    9.999       9.451       8.679       7.312       4.195       5.518       5.042       3.781       2.040      5.6216E-03
   6    9.999       9.490       8.821       7.842       6.543       6.068       5.195       3.827       2.054      5.6584E-03
   7    9.999       9.550       8.995       8.258       7.357       6.497       5.380       3.900       2.078      5.7250E-03
   8    9.999       9.596       9.113       8.487       7.691       6.731       5.504       3.956       2.098      5.7818E-03
   9    9.999       9.623       9.176       8.594       7.829       6.840       5.570       3.988       2.111      5.8165E-03
  10    9.999       9.634       9.201       8.635       7.879       6.881       5.596       4.002       2.116      5.8318E-03
1
              HEAD IN LAYER   3 AT END OF TIME STEP  54 IN STRESS PERIOD    3
  ---------------------------------------------------------------------------

            1           2           3           4           5           6           7           8           9          10
 ........................................................................................................................
   1    9.999       9.611       9.150       8.556       7.785       6.798       5.536       3.964       2.096      6.2193E-03
   2    9.999       9.589       9.098       8.465       7.664       6.704       5.481       3.937       2.086      6.1893E-03
   3    9.999       9.544       8.983       8.240       7.335       6.474       5.359       3.883       2.066      6.1307E-03
   4    9.999       9.483       8.809       7.824       6.529       6.046       5.175       3.811       2.042      6.0597E-03
   5    9.999       9.444       8.666       7.301       4.530       5.505       5.022       3.765       2.029      6.0205E-03
   6    9.999       9.484       8.810       7.825       6.531       6.047       5.175       3.811       2.043      6.0603E-03
   7    9.999       9.545       8.985       8.243       7.339       6.477       5.362       3.884       2.067      6.1327E-03
   8    9.999       9.592       9.105       8.475       7.676       6.714       5.488       3.941       2.088      6.1947E-03
   9    9.999       9.619       9.169       8.584       7.816       6.825       5.555       3.975       2.101      6.2328E-03
  10    9.999       9.631       9.194       8.625       7.866       6.867       5.582       3.989       2.107      6.2496E-03
1
              HEAD IN LAYER   4 AT END OF TIME STEP  54 IN STRESS PERIOD    3
  ---------------------------------------------------------------------------

            1           2           3           4           5           6           7           8           9          10
 ........................................................................................................................
   1    9.999       9.609       9.146       8.551       7.777       6.790       5.528       3.957       2.091      6.2511E-03
   2    9.999       9.586       9.094       8.458       7.657       6.695       5.473       3.930       2.081      6.2205E-03
   3    9.999       9.541       8.978       8.232       7.326       6.464       5.350       3.875       2.061      6.1609E-03
   4    9.999       9.480       8.803       7.815       6.525       6.036       5.165       3.803       2.037      6.0888E-03
   5    9.999       9.441       8.660       7.297       4.690       5.501       5.013       3.757       2.024      6.0492E-03
   6    9.999       9.481       8.804       7.816       6.526       6.037       5.166       3.803       2.037      6.0895E-03
   7    9.999       9.542       8.980       8.236       7.330       6.468       5.353       3.877       2.062      6.1629E-03
   8    9.999       9.590       9.101       8.469       7.668       6.706       5.480       3.934       2.083      6.2260E-03
   9    9.999       9.618       9.165       8.578       7.809       6.818       5.547       3.968       2.096      6.2649E-03
  10    9.999       9.629       9.191       8.620       7.860       6.860       5.575       3.982       2.102      6.2821E-03

 HEAD WILL BE SAVED ON UNIT   51 AT END OF TIME STEP   54, STRESS PERIOD    3

 DRAWDOWN WILL BE SAVED ON UNIT   52 AT END OF TIME STEP   54, STRESS PERIOD    3
1
  VOLUMETRIC BUDGET FOR ENTIRE MODEL AT END OF TIME STEP   54, STRESS PERIOD   3
  ------------------------------------------------------------------------------

     CUMULATIVE VOLUMES      L**3       RATES FOR THIS TIME STEP      L**3/T
     ------------------                 ------------------------

           IN:                                      IN:
           ---                                      ---
             STORAGE =      399026.9688               STORAGE =        1290.0673
       CONSTANT HEAD =           0.0000         CONSTANT HEAD =           0.0000
               WELLS =           0.0000                 WELLS =           0.0000
     HEAD DEP BOUNDS =       11614.5371       HEAD DEP BOUNDS =         263.5730

            TOTAL IN =      410641.5000              TOTAL IN =        1553.6403

          OUT:                                     OUT:
          ----                                     ----
             STORAGE =           0.0000               STORAGE =           0.0000
       CONSTANT HEAD =           0.0000         CONSTANT HEAD =           0.0000
               WELLS =       27000.0000                 WELLS =         500.0000
     HEAD DEP BOUNDS =      383643.0625       HEAD DEP BOUNDS =        1053.6428

           TOTAL OUT =      410643.0625             TOTAL OUT =        1553.6428

            IN - OUT =          -1.5625              IN - OUT =      -2.5635E-03

 PERCENT DISCREPANCY =          -0.00     PERCENT DISCREPANCY =          -0.00






         TIME SUMMARY AT END OF TIME STEP   54 IN STRESS PERIOD    3
                    SECONDS     MINUTES      HOURS       DAYS        YEARS
                    -----------------------------------------------------------
   TIME STEP LENGTH  86400.      1440.0      24.000      1.0000     2.73785E-03
 STRESS PERIOD TIME 4.66560E+06  77760.      1296.0      54.000     0.14784    
         TOTAL TIME 1.33920E+07 2.23200E+05  3720.0      155.00     0.42437    
1
 
 SOLVING FOR HEAD 

 OUTPUT CONTROL FOR STRESS PERIOD    3   TIME STEP   55
    SAVE HEAD FOR ALL LAYERS
    SAVE DRAWDOWN FOR ALL LAYERS
    SAVE BUDGET
    PRINT HEAD FOR ALL LAYERS
    PRINT BUDGET
 UBDSV1 SAVING "         STORAGE" ON UNIT  53 AT TIME STEP 55, STRESS PERIOD   3
 UBDSV2 SAVING "   CONSTANT HEAD" ON UNIT  53 AT TIME STEP 55, STRESS PERIOD   3
 UBDSV1 SAVING "FLOW RIGHT FACE " ON UNIT  53 AT TIME STEP 55, STRESS PERIOD   3
 UBDSV1 SAVING "FLOW FRONT FACE " ON UNIT  53 AT TIME STEP 55, STRESS PERIOD   3
 UBDSV1 SAVING "FLOW LOWER FACE " ON UNIT  53 AT TIME STEP 55, STRESS PERIOD   3
1
              HEAD IN LAYER   1 AT END OF TIME STEP  55 IN STRESS PERIOD    3
  ---------------------------------------------------------------------------

            1           2           3           4           5           6           7           8           9          10
 ........................................................................................................................
   1    9.999       9.615       9.159       8.570       7.801       6.816       5.554       3.981       2.110      3.0282E-03
   2    9.999       9.594       9.108       8.479       7.682       6.723       5.500       3.955       2.100      3.0127E-03
   3    9.999       9.550       8.995       8.257       7.356       6.496       5.380       3.901       2.081      2.9822E-03
   4    9.999       9.490       8.823       7.844       6.541       6.069       5.196       3.829       2.057      2.9452E-03
   5    9.999       9.452       8.682       7.314       3.737       5.513       5.044       3.784       2.044      2.9248E-03
   6    9.999       9.491       8.824       7.845       6.542       6.070       5.197       3.830       2.057      2.9456E-03
   7    9.999       9.551       8.997       8.261       7.360       6.499       5.382       3.902       2.081      2.9832E-03
   8    9.999       9.597       9.115       8.489       7.693       6.733       5.507       3.959       2.102      3.0155E-03
   9    9.999       9.624       9.177       8.596       7.831       6.842       5.573       3.991       2.114      3.0351E-03
  10    9.999       9.635       9.202       8.636       7.881       6.883       5.599       4.005       2.120      3.0437E-03
1
              HEAD IN LAYER   2 AT END OF TIME STEP  55 IN STRESS PERIOD    3
  ---------------------------------------------------------------------------

            1           2           3           4           5           6           7           8           9          10
 ........................................................................................................................
   1    9.999       9.609       9.148       8.553       7.781       6.795       5.534       3.964       2.099      5.7832E-03
   2    9.999       9.587       9.095       8.461       7.661       6.701       5.479       3.937       2.089      5.7548E-03
   3    9.999       9.542       8.980       8.236       7.331       6.470       5.357       3.883       2.069      5.6995E-03
   4    9.999       9.482       8.806       7.820       6.516       6.041       5.172       3.810       2.044      5.6326E-03
   5    9.999       9.443       8.663       7.289       4.166       5.490       5.019       3.764       2.031      5.5957E-03
   6    9.999       9.482       8.807       7.821       6.517       6.042       5.172       3.811       2.045      5.6332E-03
   7    9.999       9.543       8.982       8.240       7.335       6.474       5.359       3.884       2.069      5.7014E-03
   8    9.999       9.591       9.103       8.471       7.672       6.711       5.486       3.942       2.090      5.7599E-03
   9    9.999       9.618       9.166       8.581       7.813       6.822       5.553       3.975       2.103      5.7960E-03
  10    9.999       9.630       9.192       8.622       7.863       6.865       5.581       3.989       2.109      5.8119E-03
1
              HEAD IN LAYER   3 AT END OF TIME STEP  55 IN STRESS PERIOD    3
  ---------------------------------------------------------------------------

            1           2           3           4           5           6           7           8           9          10
 ........................................................................................................................
   1    9.999       9.605       9.140       8.542       7.767       6.779       5.519       3.950       2.089      6.1968E-03
   2    9.999       9.583       9.087       8.448       7.645       6.684       5.462       3.923       2.078      6.1657E-03
   3    9.999       9.537       8.970       8.221       7.313       6.451       5.339       3.867       2.058      6.1055E-03
   4    9.999       9.476       8.794       7.802       6.504       6.020       5.152       3.794       2.033      6.0328E-03
   5    9.999       9.437       8.651       7.278       4.501       5.478       4.999       3.748       2.020      5.9930E-03
   6    9.999       9.476       8.795       7.803       6.505       6.021       5.153       3.795       2.034      6.0335E-03
   7    9.999       9.538       8.972       8.225       7.317       6.455       5.341       3.869       2.059      6.1076E-03
   8    9.999       9.587       9.094       8.459       7.657       6.694       5.470       3.927       2.080      6.1715E-03
   9    9.999       9.615       9.159       8.570       7.800       6.808       5.538       3.962       2.094      6.2110E-03
  10    9.999       9.627       9.185       8.613       7.851       6.851       5.566       3.976       2.099      6.2285E-03
1
              HEAD IN LAYER   4 AT END OF TIME STEP  55 IN STRESS PERIOD    3
  ---------------------------------------------------------------------------

            1           2           3           4           5           6           7           8           9          10
 ........................................................................................................................
   1    9.999       9.603       9.136       8.536       7.760       6.771       5.511       3.944       2.084      6.2285E-03
   2    9.999       9.581       9.082       8.442       7.637       6.675       5.454       3.916       2.073      6.1968E-03
   3    9.999       9.534       8.965       8.214       7.304       6.441       5.330       3.860       2.053      6.1356E-03
   4    9.999       9.473       8.788       7.794       6.499       6.010       5.142       3.786       2.028      6.0619E-03
   5    9.999       9.434       8.644       7.274       4.662       5.474       4.989       3.739       2.014      6.0216E-03
   6    9.999       9.473       8.789       7.795       6.500       6.011       5.143       3.787       2.028      6.0626E-03
   7    9.999       9.536       8.967       8.218       7.308       6.445       5.332       3.861       2.053      6.1378E-03
   8    9.999       9.584       9.090       8.453       7.649       6.686       5.462       3.920       2.075      6.2028E-03
   9    9.999       9.613       9.155       8.565       7.793       6.800       5.531       3.955       2.089      6.2431E-03
  10    9.999       9.625       9.182       8.608       7.845       6.844       5.559       3.970       2.095      6.2610E-03

 HEAD WILL BE SAVED ON UNIT   51 AT END OF TIME STEP   55, STRESS PERIOD    3

 DRAWDOWN WILL BE SAVED ON UNIT   52 AT END OF TIME STEP   55, STRESS PERIOD    3
1
  VOLUMETRIC BUDGET FOR ENTIRE MODEL AT END OF TIME STEP   55, STRESS PERIOD   3
  ------------------------------------------------------------------------------

     CUMULATIVE VOLUMES      L**3       RATES FOR THIS TIME STEP      L**3/T
     ------------------                 ------------------------

           IN:                                      IN:
           ---                                      ---
             STORAGE =      400309.1562               STORAGE =        1282.1821
       CONSTANT HEAD =           0.0000         CONSTANT HEAD =           0.0000
               WELLS =           0.0000                 WELLS =           0.0000
     HEAD DEP BOUNDS =       11881.7686       HEAD DEP BOUNDS =         267.2318

            TOTAL IN =      412190.9375              TOTAL IN =        1549.4139

          OUT:                                     OUT:
          ----                                     ----
             STORAGE =           0.0000               STORAGE =           0.0000
       CONSTANT HEAD =           0.0000         CONSTANT HEAD =           0.0000
               WELLS =       27500.0000                 WELLS =         500.0000
     HEAD DEP BOUNDS =      384692.4688       HEAD DEP BOUNDS =        1049.4097

           TOTAL OUT =      412192.4688             TOTAL OUT =        1549.4097

            IN - OUT =          -1.5312              IN - OUT =       4.2725E-03

 PERCENT DISCREPANCY =          -0.00     PERCENT DISCREPANCY =           0.00






         TIME SUMMARY AT END OF TIME STEP   55 IN STRESS PERIOD    3
                    SECONDS     MINUTES      HOURS       DAYS        YEARS
                    -----------------------------------------------------------
   TIME STEP LENGTH  86400.      1440.0      24.000      1.0000     2.73785E-03
 STRESS PERIOD TIME 4.75200E+06  79200.      1320.0      55.000     0.15058    
         TOTAL TIME 1.34784E+07 2.24640E+05  3744.0      156.00     0.42710    
1
 
 SOLVING FOR HEAD 

 OUTPUT CONTROL FOR STRESS PERIOD    3   TIME STEP   56
    SAVE HEAD FOR ALL LAYERS
    SAVE DRAWDOWN FOR ALL LAYERS
    SAVE BUDGET
    PRINT HEAD FOR ALL LAYERS
    PRINT BUDGET
 UBDSV1 SAVING "         STORAGE" ON UNIT  53 AT TIME STEP 56, STRESS PERIOD   3
 UBDSV2 SAVING "   CONSTANT HEAD" ON UNIT  53 AT TIME STEP 56, STRESS PERIOD   3
 UBDSV1 SAVING "FLOW RIGHT FACE " ON UNIT  53 AT TIME STEP 56, STRESS PERIOD   3
 UBDSV1 SAVING "FLOW FRONT FACE " ON UNIT  53 AT TIME STEP 56, STRESS PERIOD   3
 UBDSV1 SAVING "FLOW LOWER FACE " ON UNIT  53 AT TIME STEP 56, STRESS PERIOD   3
1
              HEAD IN LAYER   1 AT END OF TIME STEP  56 IN STRESS PERIOD    3
  ---------------------------------------------------------------------------

            1           2           3           4           5           6           7           8           9          10
 ........................................................................................................................
   1    9.999       9.610       9.149       8.555       7.783       6.797       5.537       3.967       2.102      3.0163E-03
   2    9.999       9.588       9.097       8.463       7.663       6.703       5.482       3.940       2.092      3.0002E-03
   3    9.999       9.543       8.982       8.239       7.333       6.472       5.359       3.885       2.072      2.9689E-03
   4    9.999       9.483       8.808       7.823       6.515       6.043       5.173       3.813       2.048      2.9311E-03
   5    9.999       9.444       8.666       7.291       3.708       5.486       5.020       3.766       2.034      2.9102E-03
   6    9.999       9.483       8.809       7.824       6.516       6.044       5.174       3.813       2.048      2.9315E-03
   7    9.999       9.544       8.984       8.242       7.337       6.476       5.362       3.887       2.073      2.9700E-03
   8    9.999       9.592       9.104       8.473       7.675       6.713       5.489       3.945       2.094      3.0031E-03
   9    9.999       9.619       9.168       8.582       7.815       6.825       5.556       3.978       2.107      3.0235E-03
  10    9.999       9.631       9.193       8.624       7.865       6.867       5.583       3.992       2.113      3.0326E-03
1
              HEAD IN LAYER   2 AT END OF TIME STEP  56 IN STRESS PERIOD    3
  ---------------------------------------------------------------------------

            1           2           3           4           5           6           7           8           9          10
 ........................................................................................................................
   1    9.999       9.604       9.138       8.539       7.763       6.776       5.517       3.951       2.091      5.7621E-03
   2    9.999       9.582       9.084       8.445       7.641       6.681       5.461       3.923       2.081      5.7328E-03
   3    9.999       9.535       8.967       8.218       7.308       6.447       5.336       3.867       2.060      5.6760E-03
   4    9.999       9.474       8.791       7.798       6.491       6.015       5.149       3.794       2.035      5.6075E-03
   5    9.999       9.435       8.648       7.267       4.137       5.463       4.995       3.747       2.022      5.5700E-03
   6    9.999       9.475       8.792       7.799       6.492       6.016       5.150       3.794       2.036      5.6081E-03
   7    9.999       9.537       8.970       8.221       7.313       6.451       5.339       3.869       2.061      5.6780E-03
   8    9.999       9.585       9.092       8.456       7.653       6.691       5.468       3.928       2.083      5.7382E-03
   9    9.999       9.613       9.157       8.567       7.796       6.805       5.537       3.962       2.096      5.7756E-03
  10    9.999       9.625       9.184       8.610       7.848       6.848       5.565       3.977       2.102      5.7922E-03
1
              HEAD IN LAYER   3 AT END OF TIME STEP  56 IN STRESS PERIOD    3
  ---------------------------------------------------------------------------

            1           2           3           4           5           6           7           8           9          10
 ........................................................................................................................
   1    9.999       9.600       9.130       8.527       7.749       6.760       5.502       3.937       2.081      6.1743E-03
   2    9.999       9.577       9.075       8.432       7.626       6.664       5.444       3.909       2.070      6.1423E-03
   3    9.999       9.530       8.957       8.203       7.290       6.428       5.318       3.852       2.050      6.0804E-03
   4    9.999       9.469       8.779       7.781       6.478       5.995       5.130       3.777       2.024      6.0062E-03
   5    9.999       9.429       8.635       7.256       4.473       5.451       4.976       3.731       2.011      5.9657E-03
   6    9.999       9.469       8.780       7.782       6.480       5.996       5.131       3.778       2.025      6.0069E-03
   7    9.999       9.532       8.960       8.207       7.295       6.432       5.321       3.854       2.050      6.0827E-03
   8    9.999       9.581       9.083       8.444       7.638       6.675       5.452       3.914       2.072      6.1484E-03
   9    9.999       9.610       9.150       8.557       7.783       6.790       5.522       3.949       2.086      6.1893E-03
  10    9.999       9.622       9.177       8.600       7.836       6.834       5.551       3.964       2.092      6.2076E-03
1
              HEAD IN LAYER   4 AT END OF TIME STEP  56 IN STRESS PERIOD    3
  ---------------------------------------------------------------------------

            1           2           3           4           5           6           7           8           9          10
 ........................................................................................................................
   1    9.999       9.598       9.126       8.521       7.742       6.753       5.494       3.930       2.076      6.2060E-03
   2    9.999       9.575       9.071       8.426       7.618       6.655       5.436       3.902       2.065      6.1733E-03
   3    9.999       9.528       8.952       8.195       7.281       6.419       5.309       3.844       2.044      6.1105E-03
   4    9.999       9.466       8.773       7.773       6.474       5.984       5.120       3.769       2.019      6.0352E-03
   5    9.999       9.426       8.629       7.252       4.634       5.447       4.966       3.722       2.005      5.9942E-03
   6    9.999       9.466       8.774       7.774       6.475       5.986       5.121       3.770       2.019      6.0359E-03
   7    9.999       9.529       8.955       8.199       7.286       6.423       5.312       3.846       2.045      6.1129E-03
   8    9.999       9.579       9.079       8.437       7.631       6.667       5.444       3.907       2.067      6.1797E-03
   9    9.999       9.608       9.146       8.551       7.777       6.783       5.515       3.942       2.081      6.2214E-03
  10    9.999       9.620       9.173       8.595       7.830       6.827       5.544       3.957       2.088      6.2400E-03

 HEAD WILL BE SAVED ON UNIT   51 AT END OF TIME STEP   56, STRESS PERIOD    3

 DRAWDOWN WILL BE SAVED ON UNIT   52 AT END OF TIME STEP   56, STRESS PERIOD    3
1
  VOLUMETRIC BUDGET FOR ENTIRE MODEL AT END OF TIME STEP   56, STRESS PERIOD   3
  ------------------------------------------------------------------------------

     CUMULATIVE VOLUMES      L**3       RATES FOR THIS TIME STEP      L**3/T
     ------------------                 ------------------------

           IN:                                      IN:
           ---                                      ---
             STORAGE =      401583.4688               STORAGE =        1274.3257
       CONSTANT HEAD =           0.0000         CONSTANT HEAD =           0.0000
               WELLS =           0.0000                 WELLS =           0.0000
     HEAD DEP BOUNDS =       12152.6436       HEAD DEP BOUNDS =         270.8748

            TOTAL IN =      413736.1250              TOTAL IN =        1545.2006

          OUT:                                     OUT:
          ----                                     ----
             STORAGE =           0.0000               STORAGE =           0.0000
       CONSTANT HEAD =           0.0000         CONSTANT HEAD =           0.0000
               WELLS =       28000.0000                 WELLS =         500.0000
     HEAD DEP BOUNDS =      385737.6875       HEAD DEP BOUNDS =        1045.2040

           TOTAL OUT =      413737.6875             TOTAL OUT =        1545.2040

            IN - OUT =          -1.5625              IN - OUT =      -3.4180E-03

 PERCENT DISCREPANCY =          -0.00     PERCENT DISCREPANCY =          -0.00






         TIME SUMMARY AT END OF TIME STEP   56 IN STRESS PERIOD    3
                    SECONDS     MINUTES      HOURS       DAYS        YEARS
                    -----------------------------------------------------------
   TIME STEP LENGTH  86400.      1440.0      24.000      1.0000     2.73785E-03
 STRESS PERIOD TIME 4.83840E+06  80640.      1344.0      56.000     0.15332    
         TOTAL TIME 1.35648E+07 2.26080E+05  3768.0      157.00     0.42984    
1
 
 SOLVING FOR HEAD 

 OUTPUT CONTROL FOR STRESS PERIOD    3   TIME STEP   57
    SAVE HEAD FOR ALL LAYERS
    SAVE DRAWDOWN FOR ALL LAYERS
    SAVE BUDGET
    PRINT HEAD FOR ALL LAYERS
    PRINT BUDGET
 UBDSV1 SAVING "         STORAGE" ON UNIT  53 AT TIME STEP 57, STRESS PERIOD   3
 UBDSV2 SAVING "   CONSTANT HEAD" ON UNIT  53 AT TIME STEP 57, STRESS PERIOD   3
 UBDSV1 SAVING "FLOW RIGHT FACE " ON UNIT  53 AT TIME STEP 57, STRESS PERIOD   3
 UBDSV1 SAVING "FLOW FRONT FACE " ON UNIT  53 AT TIME STEP 57, STRESS PERIOD   3
 UBDSV1 SAVING "FLOW LOWER FACE " ON UNIT  53 AT TIME STEP 57, STRESS PERIOD   3
1
              HEAD IN LAYER   1 AT END OF TIME STEP  57 IN STRESS PERIOD    3
  ---------------------------------------------------------------------------

            1           2           3           4           5           6           7           8           9          10
 ........................................................................................................................
   1    9.999       9.605       9.139       8.540       7.766       6.778       5.520       3.954       2.095      3.0044E-03
   2    9.999       9.582       9.086       8.447       7.644       6.683       5.463       3.926       2.084      2.9877E-03
   3    9.999       9.536       8.969       8.220       7.311       6.450       5.339       3.870       2.063      2.9556E-03
   4    9.999       9.475       8.793       7.801       6.489       6.017       5.151       3.796       2.039      2.9169E-03
   5    9.999       9.436       8.650       7.268       3.679       5.459       4.997       3.749       2.025      2.8958E-03
   6    9.999       9.476       8.794       7.802       6.491       6.018       5.152       3.796       2.039      2.9174E-03
   7    9.999       9.538       8.971       8.224       7.315       6.453       5.341       3.871       2.064      2.9568E-03
   8    9.999       9.586       9.093       8.458       7.656       6.694       5.471       3.931       2.086      2.9909E-03
   9    9.999       9.614       9.158       8.569       7.799       6.807       5.540       3.965       2.100      3.0120E-03
  10    9.999       9.626       9.185       8.611       7.850       6.851       5.568       3.980       2.106      3.0214E-03
1
              HEAD IN LAYER   2 AT END OF TIME STEP  57 IN STRESS PERIOD    3
  ---------------------------------------------------------------------------

            1           2           3           4           5           6           7           8           9          10
 ........................................................................................................................
   1    9.999       9.599       9.127       8.524       7.746       6.758       5.500       3.937       2.084      5.7411E-03
   2    9.999       9.576       9.073       8.429       7.622       6.660       5.442       3.909       2.073      5.7108E-03
   3    9.999       9.529       8.954       8.199       7.286       6.424       5.316       3.852       2.052      5.6525E-03
   4    9.999       9.467       8.776       7.777       6.465       5.990       5.127       3.777       2.026      5.5825E-03
   5    9.999       9.427       8.632       7.244       4.109       5.436       4.972       3.730       2.013      5.5444E-03
   6    9.999       9.467       8.777       7.778       6.467       5.991       5.128       3.778       2.027      5.5832E-03
   7    9.999       9.530       8.957       8.203       7.291       6.428       5.319       3.853       2.052      5.6547E-03
   8    9.999       9.580       9.081       8.440       7.635       6.672       5.450       3.914       2.075      5.7167E-03
   9    9.999       9.609       9.147       8.554       7.780       6.788       5.521       3.949       2.089      5.7553E-03
  10    9.999       9.621       9.175       8.597       7.833       6.832       5.549       3.964       2.095      5.7726E-03
1
              HEAD IN LAYER   3 AT END OF TIME STEP  57 IN STRESS PERIOD    3
  ---------------------------------------------------------------------------

            1           2           3           4           5           6           7           8           9          10
 ........................................................................................................................
   1    9.999       9.595       9.119       8.512       7.732       6.742       5.484       3.924       2.074      6.1520E-03
   2    9.999       9.571       9.064       8.416       7.606       6.644       5.426       3.895       2.063      6.1190E-03
   3    9.999       9.524       8.944       8.184       7.268       6.406       5.298       3.837       2.041      6.0555E-03
   4    9.999       9.461       8.765       7.760       6.453       5.969       5.108       3.761       2.016      5.9797E-03
   5    9.999       9.421       8.620       7.233       4.445       5.424       4.953       3.714       2.002      5.9385E-03
   6    9.999       9.462       8.766       7.761       6.455       5.971       5.109       3.762       2.016      5.9805E-03
   7    9.999       9.525       8.947       8.188       7.273       6.410       5.301       3.838       2.042      6.0580E-03
   8    9.999       9.576       9.072       8.428       7.620       6.655       5.434       3.900       2.065      6.1255E-03
   9    9.999       9.605       9.140       8.543       7.767       6.773       5.506       3.936       2.079      6.1678E-03
  10    9.999       9.618       9.168       8.588       7.821       6.818       5.535       3.952       2.085      6.1868E-03
1
              HEAD IN LAYER   4 AT END OF TIME STEP  57 IN STRESS PERIOD    3
  ---------------------------------------------------------------------------

            1           2           3           4           5           6           7           8           9          10
 ........................................................................................................................
   1    9.999       9.593       9.115       8.507       7.724       6.734       5.477       3.917       2.069      6.1836E-03
   2    9.999       9.569       9.060       8.410       7.599       6.635       5.418       3.888       2.058      6.1500E-03
   3    9.999       9.521       8.939       8.177       7.259       6.396       5.289       3.829       2.036      6.0855E-03
   4    9.999       9.458       8.759       7.752       6.449       5.959       5.098       3.753       2.010      6.0086E-03
   5    9.999       9.418       8.614       7.229       4.606       5.420       4.943       3.706       1.996      5.9670E-03
   6    9.999       9.459       8.760       7.753       6.450       5.960       5.099       3.754       2.010      6.0094E-03
   7    9.999       9.523       8.942       8.181       7.264       6.400       5.292       3.831       2.037      6.0880E-03
   8    9.999       9.573       9.068       8.422       7.612       6.647       5.426       3.893       2.060      6.1567E-03
   9    9.999       9.603       9.136       8.538       7.760       6.765       5.499       3.929       2.074      6.1998E-03
  10    9.999       9.616       9.165       8.583       7.814       6.811       5.528       3.945       2.081      6.2192E-03

 HEAD WILL BE SAVED ON UNIT   51 AT END OF TIME STEP   57, STRESS PERIOD    3

 DRAWDOWN WILL BE SAVED ON UNIT   52 AT END OF TIME STEP   57, STRESS PERIOD    3
1
  VOLUMETRIC BUDGET FOR ENTIRE MODEL AT END OF TIME STEP   57, STRESS PERIOD   3
  ------------------------------------------------------------------------------

     CUMULATIVE VOLUMES      L**3       RATES FOR THIS TIME STEP      L**3/T
     ------------------                 ------------------------

           IN:                                      IN:
           ---                                      ---
             STORAGE =      402849.9688               STORAGE =        1266.5050
       CONSTANT HEAD =           0.0000         CONSTANT HEAD =           0.0000
               WELLS =           0.0000                 WELLS =           0.0000
     HEAD DEP BOUNDS =       12427.1484       HEAD DEP BOUNDS =         274.5045

            TOTAL IN =      415277.1250              TOTAL IN =        1541.0095

          OUT:                                     OUT:
          ----                                     ----
             STORAGE =           0.0000               STORAGE =           0.0000
       CONSTANT HEAD =           0.0000         CONSTANT HEAD =           0.0000
               WELLS =       28500.0000                 WELLS =         500.0000
     HEAD DEP BOUNDS =      386778.7188       HEAD DEP BOUNDS =        1041.0188

           TOTAL OUT =      415278.7188             TOTAL OUT =        1541.0188

            IN - OUT =          -1.5938              IN - OUT =      -9.2773E-03

 PERCENT DISCREPANCY =          -0.00     PERCENT DISCREPANCY =          -0.00






         TIME SUMMARY AT END OF TIME STEP   57 IN STRESS PERIOD    3
                    SECONDS     MINUTES      HOURS       DAYS        YEARS
                    -----------------------------------------------------------
   TIME STEP LENGTH  86400.      1440.0      24.000      1.0000     2.73785E-03
 STRESS PERIOD TIME 4.92480E+06  82080.      1368.0      57.000     0.15606    
         TOTAL TIME 1.36512E+07 2.27520E+05  3792.0      158.00     0.43258    
1
 
 SOLVING FOR HEAD 

 OUTPUT CONTROL FOR STRESS PERIOD    3   TIME STEP   58
    SAVE HEAD FOR ALL LAYERS
    SAVE DRAWDOWN FOR ALL LAYERS
    SAVE BUDGET
    PRINT HEAD FOR ALL LAYERS
    PRINT BUDGET
 UBDSV1 SAVING "         STORAGE" ON UNIT  53 AT TIME STEP 58, STRESS PERIOD   3
 UBDSV2 SAVING "   CONSTANT HEAD" ON UNIT  53 AT TIME STEP 58, STRESS PERIOD   3
 UBDSV1 SAVING "FLOW RIGHT FACE " ON UNIT  53 AT TIME STEP 58, STRESS PERIOD   3
 UBDSV1 SAVING "FLOW FRONT FACE " ON UNIT  53 AT TIME STEP 58, STRESS PERIOD   3
 UBDSV1 SAVING "FLOW LOWER FACE " ON UNIT  53 AT TIME STEP 58, STRESS PERIOD   3
1
              HEAD IN LAYER   1 AT END OF TIME STEP  58 IN STRESS PERIOD    3
  ---------------------------------------------------------------------------

            1           2           3           4           5           6           7           8           9          10
 ........................................................................................................................
   1    9.999       9.600       9.129       8.526       7.748       6.760       5.502       3.940       2.087      2.9925E-03
   2    9.999       9.577       9.074       8.431       7.624       6.663       5.445       3.912       2.076      2.9755E-03
   3    9.999       9.530       8.956       8.201       7.289       6.427       5.318       3.854       2.055      2.9424E-03
   4    9.999       9.468       8.779       7.780       6.464       5.991       5.129       3.779       2.029      2.9030E-03
   5    9.999       9.429       8.635       7.246       3.651       5.432       4.974       3.732       2.016      2.8814E-03
   6    9.999       9.469       8.780       7.781       6.465       5.992       5.130       3.780       2.030      2.9033E-03
   7    9.999       9.531       8.959       8.205       7.293       6.431       5.321       3.856       2.056      2.9436E-03
   8    9.999       9.581       9.082       8.442       7.637       6.674       5.453       3.917       2.078      2.9787E-03
   9    9.999       9.609       9.149       8.555       7.782       6.790       5.523       3.952       2.092      3.0006E-03
  10    9.999       9.622       9.176       8.599       7.835       6.834       5.552       3.967       2.098      3.0104E-03
1
              HEAD IN LAYER   2 AT END OF TIME STEP  58 IN STRESS PERIOD    3
  ---------------------------------------------------------------------------

            1           2           3           4           5           6           7           8           9          10
 ........................................................................................................................
   1    9.999       9.594       9.117       8.509       7.728       6.739       5.483       3.924       2.076      5.7202E-03
   2    9.999       9.570       9.062       8.413       7.603       6.640       5.424       3.895       2.065      5.6890E-03
   3    9.999       9.522       8.941       8.181       7.264       6.402       5.296       3.836       2.043      5.6292E-03
   4    9.999       9.460       8.762       7.756       6.440       5.964       5.105       3.761       2.017      5.5577E-03
   5    9.999       9.420       8.617       7.222       4.081       5.410       4.949       3.713       2.003      5.5189E-03
   6    9.999       9.460       8.763       7.758       6.442       5.966       5.106       3.761       2.018      5.5585E-03
   7    9.999       9.524       8.944       8.185       7.269       6.406       5.299       3.838       2.044      5.6315E-03
   8    9.999       9.574       9.070       8.425       7.616       6.652       5.433       3.900       2.067      5.6952E-03
   9    9.999       9.604       9.138       8.540       7.764       6.770       5.505       3.936       2.081      5.7352E-03
  10    9.999       9.617       9.166       8.585       7.818       6.816       5.534       3.952       2.088      5.7531E-03
1
              HEAD IN LAYER   3 AT END OF TIME STEP  58 IN STRESS PERIOD    3
  ---------------------------------------------------------------------------

            1           2           3           4           5           6           7           8           9          10
 ........................................................................................................................
   1    9.999       9.590       9.109       8.498       7.714       6.723       5.467       3.910       2.066      6.1298E-03
   2    9.999       9.566       9.053       8.400       7.587       6.624       5.408       3.881       2.055      6.0958E-03
   3    9.999       9.517       8.931       8.166       7.246       6.383       5.278       3.821       2.033      6.0307E-03
   4    9.999       9.454       8.750       7.739       6.428       5.944       5.086       3.745       2.007      5.9533E-03
   5    9.999       9.414       8.605       7.211       4.418       5.398       4.930       3.697       1.992      5.9115E-03
   6    9.999       9.454       8.751       7.741       6.430       5.946       5.087       3.745       2.007      5.9542E-03
   7    9.999       9.519       8.934       8.170       7.251       6.388       5.281       3.823       2.034      6.0334E-03
   8    9.999       9.570       9.061       8.412       7.601       6.636       5.417       3.886       2.057      6.1028E-03
   9    9.999       9.600       9.131       8.530       7.750       6.755       5.490       3.923       2.072      6.1465E-03
  10    9.999       9.613       9.159       8.575       7.805       6.802       5.520       3.939       2.078      6.1662E-03
1
              HEAD IN LAYER   4 AT END OF TIME STEP  58 IN STRESS PERIOD    3
  ---------------------------------------------------------------------------

            1           2           3           4           5           6           7           8           9          10
 ........................................................................................................................
   1    9.999       9.588       9.105       8.492       7.707       6.716       5.460       3.903       2.061      6.1613E-03
   2    9.999       9.564       9.048       8.394       7.579       6.615       5.400       3.874       2.050      6.1267E-03
   3    9.999       9.515       8.926       8.158       7.237       6.374       5.269       3.814       2.028      6.0606E-03
   4    9.999       9.451       8.745       7.731       6.424       5.934       5.076       3.737       2.001      5.9822E-03
   5    9.999       9.411       8.599       7.208       4.579       5.394       4.921       3.689       1.987      5.9399E-03
   6    9.999       9.452       8.746       7.732       6.426       5.936       5.077       3.737       2.002      5.9831E-03
   7    9.999       9.516       8.929       8.163       7.243       6.378       5.273       3.816       2.028      6.0634E-03
   8    9.999       9.568       9.057       8.406       7.593       6.628       5.409       3.879       2.052      6.1339E-03
   9    9.999       9.598       9.127       8.524       7.744       6.748       5.482       3.917       2.067      6.1784E-03
  10    9.999       9.611       9.156       8.570       7.799       6.795       5.513       3.933       2.074      6.1985E-03

 HEAD WILL BE SAVED ON UNIT   51 AT END OF TIME STEP   58, STRESS PERIOD    3

 DRAWDOWN WILL BE SAVED ON UNIT   52 AT END OF TIME STEP   58, STRESS PERIOD    3
1
  VOLUMETRIC BUDGET FOR ENTIRE MODEL AT END OF TIME STEP   58, STRESS PERIOD   3
  ------------------------------------------------------------------------------

     CUMULATIVE VOLUMES      L**3       RATES FOR THIS TIME STEP      L**3/T
     ------------------                 ------------------------

           IN:                                      IN:
           ---                                      ---
             STORAGE =      404108.6875               STORAGE =        1258.7144
       CONSTANT HEAD =           0.0000         CONSTANT HEAD =           0.0000
               WELLS =           0.0000                 WELLS =           0.0000
     HEAD DEP BOUNDS =       12705.2891       HEAD DEP BOUNDS =         278.1405

            TOTAL IN =      416813.9688              TOTAL IN =        1536.8549

          OUT:                                     OUT:
          ----                                     ----
             STORAGE =           0.0000               STORAGE =           0.0000
       CONSTANT HEAD =           0.0000         CONSTANT HEAD =           0.0000
               WELLS =       29000.0000                 WELLS =         500.0000
     HEAD DEP BOUNDS =      387815.5938       HEAD DEP BOUNDS =        1036.8597

           TOTAL OUT =      416815.5938             TOTAL OUT =        1536.8597

            IN - OUT =          -1.6250              IN - OUT =      -4.8828E-03

 PERCENT DISCREPANCY =          -0.00     PERCENT DISCREPANCY =          -0.00






         TIME SUMMARY AT END OF TIME STEP   58 IN STRESS PERIOD    3
                    SECONDS     MINUTES      HOURS       DAYS        YEARS
                    -----------------------------------------------------------
   TIME STEP LENGTH  86400.      1440.0      24.000      1.0000     2.73785E-03
 STRESS PERIOD TIME 5.01120E+06  83520.      1392.0      58.000     0.15880    
         TOTAL TIME 1.37376E+07 2.28960E+05  3816.0      159.00     0.43532    
1
 
 SOLVING FOR HEAD 

 OUTPUT CONTROL FOR STRESS PERIOD    3   TIME STEP   59
    SAVE HEAD FOR ALL LAYERS
    SAVE DRAWDOWN FOR ALL LAYERS
    SAVE BUDGET
    PRINT HEAD FOR ALL LAYERS
    PRINT BUDGET
 UBDSV1 SAVING "         STORAGE" ON UNIT  53 AT TIME STEP 59, STRESS PERIOD   3
 UBDSV2 SAVING "   CONSTANT HEAD" ON UNIT  53 AT TIME STEP 59, STRESS PERIOD   3
 UBDSV1 SAVING "FLOW RIGHT FACE " ON UNIT  53 AT TIME STEP 59, STRESS PERIOD   3
 UBDSV1 SAVING "FLOW FRONT FACE " ON UNIT  53 AT TIME STEP 59, STRESS PERIOD   3
 UBDSV1 SAVING "FLOW LOWER FACE " ON UNIT  53 AT TIME STEP 59, STRESS PERIOD   3
1
              HEAD IN LAYER   1 AT END OF TIME STEP  59 IN STRESS PERIOD    3
  ---------------------------------------------------------------------------

            1           2           3           4           5           6           7           8           9          10
 ........................................................................................................................
   1    9.999       9.594       9.118       8.511       7.730       6.741       5.485       3.927       2.079      2.9807E-03
   2    9.999       9.571       9.063       8.415       7.605       6.643       5.426       3.898       2.068      2.9632E-03
   3    9.999       9.523       8.943       8.183       7.267       6.404       5.298       3.839       2.046      2.9294E-03
   4    9.999       9.461       8.764       7.759       6.439       5.966       5.107       3.763       2.021      2.8891E-03
   5    9.999       9.421       8.620       7.224       3.623       5.405       4.951       3.715       2.006      2.8671E-03
   6    9.999       9.461       8.765       7.761       6.440       5.967       5.108       3.764       2.021      2.8895E-03
   7    9.999       9.525       8.946       8.187       7.271       6.408       5.301       3.841       2.047      2.9308E-03
   8    9.999       9.575       9.071       8.427       7.618       6.655       5.435       3.903       2.070      2.9667E-03
   9    9.999       9.605       9.139       8.542       7.766       6.772       5.507       3.939       2.085      2.9892E-03
  10    9.999       9.617       9.167       8.586       7.820       6.818       5.537       3.955       2.091      2.9995E-03
1
              HEAD IN LAYER   2 AT END OF TIME STEP  59 IN STRESS PERIOD    3
  ---------------------------------------------------------------------------

            1           2           3           4           5           6           7           8           9          10
 ........................................................................................................................
   1    9.999       9.588       9.107       8.495       7.711       6.720       5.466       3.911       2.069      5.6994E-03
   2    9.999       9.564       9.050       8.397       7.584       6.620       5.406       3.881       2.057      5.6673E-03
   3    9.999       9.516       8.928       8.162       7.242       6.379       5.276       3.821       2.035      5.6060E-03
   4    9.999       9.452       8.748       7.736       6.415       5.939       5.083       3.744       2.009      5.5331E-03
   5    9.999       9.412       8.602       7.201       4.053       5.383       4.927       3.696       1.994      5.4937E-03
   6    9.999       9.453       8.749       7.737       6.417       5.941       5.084       3.745       2.009      5.5339E-03
   7    9.999       9.517       8.931       8.167       7.247       6.384       5.279       3.823       2.036      5.6085E-03
   8    9.999       9.569       9.059       8.409       7.598       6.633       5.415       3.886       2.059      5.6739E-03
   9    9.999       9.599       9.128       8.527       7.747       6.753       5.488       3.924       2.074      5.7152E-03
  10    9.999       9.612       9.157       8.572       7.803       6.799       5.519       3.940       2.081      5.7338E-03
1
              HEAD IN LAYER   3 AT END OF TIME STEP  59 IN STRESS PERIOD    3
  ---------------------------------------------------------------------------

            1           2           3           4           5           6           7           8           9          10
 ........................................................................................................................
   1    9.999       9.584       9.099       8.483       7.696       6.705       5.450       3.897       2.059      6.1077E-03
   2    9.999       9.560       9.042       8.384       7.568       6.604       5.390       3.867       2.047      6.0728E-03
   3    9.999       9.511       8.918       8.148       7.225       6.361       5.258       3.806       2.024      6.0061E-03
   4    9.999       9.447       8.736       7.719       6.404       5.919       5.064       3.729       1.998      5.9272E-03
   5    9.999       9.406       8.590       7.190       4.391       5.372       4.908       3.680       1.983      5.8847E-03
   6    9.999       9.447       8.737       7.720       6.405       5.921       5.065       3.729       1.998      5.9281E-03
   7    9.999       9.512       8.921       8.152       7.230       6.365       5.262       3.808       2.025      6.0089E-03
   8    9.999       9.564       9.051       8.397       7.583       6.617       5.399       3.872       2.049      6.0801E-03
   9    9.999       9.595       9.121       8.516       7.734       6.738       5.474       3.911       2.065      6.1252E-03
  10    9.999       9.609       9.151       8.563       7.790       6.786       5.505       3.927       2.072      6.1457E-03
1
              HEAD IN LAYER   4 AT END OF TIME STEP  59 IN STRESS PERIOD    3
  ---------------------------------------------------------------------------

            1           2           3           4           5           6           7           8           9          10
 ........................................................................................................................
   1    9.999       9.582       9.095       8.477       7.689       6.697       5.443       3.890       2.054      6.1391E-03
   2    9.999       9.558       9.037       8.378       7.560       6.595       5.381       3.860       2.042      6.1036E-03
   3    9.999       9.508       8.913       8.140       7.216       6.351       5.249       3.799       2.019      6.0359E-03
   4    9.999       9.444       8.730       7.711       6.399       5.909       5.055       3.721       1.992      5.9559E-03
   5    9.999       9.403       8.584       7.186       4.552       5.368       4.898       3.672       1.978      5.9130E-03
   6    9.999       9.444       8.731       7.712       6.401       5.911       5.056       3.721       1.993      5.9569E-03
   7    9.999       9.510       8.916       8.145       7.221       6.356       5.253       3.801       2.020      6.0388E-03
   8    9.999       9.562       9.046       8.391       7.575       6.608       5.391       3.865       2.045      6.1111E-03
   9    9.999       9.593       9.117       8.511       7.728       6.731       5.466       3.904       2.060      6.1571E-03
  10    9.999       9.607       9.147       8.558       7.784       6.779       5.498       3.921       2.067      6.1779E-03

 HEAD WILL BE SAVED ON UNIT   51 AT END OF TIME STEP   59, STRESS PERIOD    3

 DRAWDOWN WILL BE SAVED ON UNIT   52 AT END OF TIME STEP   59, STRESS PERIOD    3
1
  VOLUMETRIC BUDGET FOR ENTIRE MODEL AT END OF TIME STEP   59, STRESS PERIOD   3
  ------------------------------------------------------------------------------

     CUMULATIVE VOLUMES      L**3       RATES FOR THIS TIME STEP      L**3/T
     ------------------                 ------------------------

           IN:                                      IN:
           ---                                      ---
             STORAGE =      405359.6562               STORAGE =        1250.9698
       CONSTANT HEAD =           0.0000         CONSTANT HEAD =           0.0000
               WELLS =           0.0000                 WELLS =           0.0000
     HEAD DEP BOUNDS =       12987.0498       HEAD DEP BOUNDS =         281.7608

            TOTAL IN =      418346.7188              TOTAL IN =        1532.7306

          OUT:                                     OUT:
          ----                                     ----
             STORAGE =           0.0000               STORAGE =           0.0000
       CONSTANT HEAD =           0.0000         CONSTANT HEAD =           0.0000
               WELLS =       29500.0000                 WELLS =         500.0000
     HEAD DEP BOUNDS =      388848.3125       HEAD DEP BOUNDS =        1032.7291

           TOTAL OUT =      418348.3125             TOTAL OUT =        1532.7291

            IN - OUT =          -1.5938              IN - OUT =       1.4648E-03

 PERCENT DISCREPANCY =          -0.00     PERCENT DISCREPANCY =           0.00






         TIME SUMMARY AT END OF TIME STEP   59 IN STRESS PERIOD    3
                    SECONDS     MINUTES      HOURS       DAYS        YEARS
                    -----------------------------------------------------------
   TIME STEP LENGTH  86400.      1440.0      24.000      1.0000     2.73785E-03
 STRESS PERIOD TIME 5.09760E+06  84960.      1416.0      59.000     0.16153    
         TOTAL TIME 1.38240E+07 2.30400E+05  3840.0      160.00     0.43806    
1
 
 SOLVING FOR HEAD 

 OUTPUT CONTROL FOR STRESS PERIOD    3   TIME STEP   60
    SAVE HEAD FOR ALL LAYERS
    SAVE DRAWDOWN FOR ALL LAYERS
    SAVE BUDGET
    PRINT HEAD FOR ALL LAYERS
    PRINT BUDGET
 UBDSV1 SAVING "         STORAGE" ON UNIT  53 AT TIME STEP 60, STRESS PERIOD   3
 UBDSV2 SAVING "   CONSTANT HEAD" ON UNIT  53 AT TIME STEP 60, STRESS PERIOD   3
 UBDSV1 SAVING "FLOW RIGHT FACE " ON UNIT  53 AT TIME STEP 60, STRESS PERIOD   3
 UBDSV1 SAVING "FLOW FRONT FACE " ON UNIT  53 AT TIME STEP 60, STRESS PERIOD   3
 UBDSV1 SAVING "FLOW LOWER FACE " ON UNIT  53 AT TIME STEP 60, STRESS PERIOD   3
1
              HEAD IN LAYER   1 AT END OF TIME STEP  60 IN STRESS PERIOD    3
  ---------------------------------------------------------------------------

            1           2           3           4           5           6           7           8           9          10
 ........................................................................................................................
   1    9.999       9.589       9.108       8.496       7.713       6.723       5.468       3.913       2.072      2.9692E-03
   2    9.999       9.565       9.052       8.399       7.586       6.623       5.408       3.884       2.060      2.9509E-03
   3    9.999       9.517       8.930       8.165       7.245       6.382       5.278       3.824       2.038      2.9164E-03
   4    9.999       9.454       8.750       7.739       6.414       5.941       5.085       3.747       2.012      2.8752E-03
   5    9.999       9.413       8.605       7.202       3.596       5.379       4.928       3.698       1.997      2.8531E-03
   6    9.999       9.454       8.751       7.740       6.416       5.942       5.086       3.747       2.012      2.8758E-03
   7    9.999       9.518       8.933       8.169       7.250       6.386       5.281       3.826       2.039      2.9178E-03
   8    9.999       9.570       9.060       8.411       7.600       6.635       5.417       3.889       2.063      2.9547E-03
   9    9.999       9.600       9.130       8.528       7.749       6.755       5.491       3.927       2.078      2.9781E-03
  10    9.999       9.613       9.158       8.574       7.805       6.802       5.521       3.943       2.084      2.9885E-03
1
              HEAD IN LAYER   2 AT END OF TIME STEP  60 IN STRESS PERIOD    3
  ---------------------------------------------------------------------------

            1           2           3           4           5           6           7           8           9          10
 ........................................................................................................................
   1    9.999       9.583       9.096       8.480       7.693       6.702       5.449       3.897       2.061      5.6787E-03
   2    9.999       9.559       9.039       8.381       7.564       6.601       5.388       3.867       2.049      5.6457E-03
   3    9.999       9.509       8.915       8.144       7.221       6.357       5.256       3.806       2.027      5.5829E-03
   4    9.999       9.445       8.733       7.715       6.391       5.915       5.061       3.728       2.000      5.5086E-03
   5    9.999       9.405       8.587       7.179       4.026       5.357       4.904       3.679       1.985      5.4686E-03
   6    9.999       9.446       8.734       7.717       6.392       5.916       5.062       3.729       2.000      5.5095E-03
   7    9.999       9.511       8.919       8.149       7.226       6.362       5.259       3.808       2.028      5.5856E-03
   8    9.999       9.563       9.048       8.394       7.579       6.614       5.397       3.873       2.052      5.6527E-03
   9    9.999       9.594       9.119       8.513       7.731       6.736       5.472       3.911       2.067      5.6953E-03
  10    9.999       9.608       9.149       8.560       7.787       6.783       5.503       3.928       2.074      5.7146E-03
1
              HEAD IN LAYER   3 AT END OF TIME STEP  60 IN STRESS PERIOD    3
  ---------------------------------------------------------------------------

            1           2           3           4           5           6           7           8           9          10
 ........................................................................................................................
   1    9.999       9.579       9.088       8.469       7.679       6.687       5.433       3.884       2.051      6.0857E-03
   2    9.999       9.554       9.030       8.368       7.549       6.584       5.372       3.853       2.039      6.0498E-03
   3    9.999       9.504       8.905       8.129       7.203       6.339       5.238       3.791       2.016      5.9816E-03
   4    9.999       9.439       8.722       7.698       6.379       5.895       5.042       3.712       1.989      5.9012E-03
   5    9.999       9.399       8.575       7.168       4.364       5.346       4.885       3.664       1.974      5.8581E-03
   6    9.999       9.440       8.723       7.700       6.381       5.896       5.044       3.713       1.989      5.9021E-03
   7    9.999       9.506       8.909       8.134       7.208       6.344       5.242       3.794       2.017      5.9846E-03
   8    9.999       9.559       9.040       8.382       7.564       6.597       5.381       3.859       2.042      6.0576E-03
   9    9.999       9.590       9.112       8.503       7.718       6.721       5.458       3.898       2.058      6.1041E-03
  10    9.999       9.604       9.142       8.550       7.775       6.769       5.490       3.915       2.065      6.1253E-03
1
              HEAD IN LAYER   4 AT END OF TIME STEP  60 IN STRESS PERIOD    3
  ---------------------------------------------------------------------------

            1           2           3           4           5           6           7           8           9          10
 ........................................................................................................................
   1    9.999       9.577       9.084       8.463       7.672       6.679       5.426       3.877       2.047      6.1171E-03
   2    9.999       9.552       9.026       8.362       7.541       6.576       5.363       3.846       2.034      6.0806E-03
   3    9.999       9.502       8.900       8.122       7.194       6.329       5.230       3.784       2.011      6.0113E-03
   4    9.999       9.437       8.716       7.690       6.375       5.885       5.033       3.705       1.984      5.9299E-03
   5    9.998       9.396       8.569       7.165       4.525       5.342       4.876       3.656       1.969      5.8863E-03
   6    9.999       9.437       8.717       7.692       6.377       5.887       5.034       3.705       1.984      5.9309E-03
   7    9.999       9.504       8.904       8.127       7.200       6.334       5.233       3.786       2.012      6.0144E-03
   8    9.999       9.557       9.036       8.376       7.557       6.589       5.373       3.852       2.037      6.0886E-03
   9    9.999       9.589       9.108       8.497       7.711       6.714       5.450       3.891       2.053      6.1359E-03
  10    9.999       9.602       9.138       8.545       7.769       6.763       5.483       3.909       2.060      6.1575E-03

 HEAD WILL BE SAVED ON UNIT   51 AT END OF TIME STEP   60, STRESS PERIOD    3

 DRAWDOWN WILL BE SAVED ON UNIT   52 AT END OF TIME STEP   60, STRESS PERIOD    3
1
  VOLUMETRIC BUDGET FOR ENTIRE MODEL AT END OF TIME STEP   60, STRESS PERIOD   3
  ------------------------------------------------------------------------------

     CUMULATIVE VOLUMES      L**3       RATES FOR THIS TIME STEP      L**3/T
     ------------------                 ------------------------

           IN:                                      IN:
           ---                                      ---
             STORAGE =      406602.9062               STORAGE =        1243.2618
       CONSTANT HEAD =           0.0000         CONSTANT HEAD =           0.0000
               WELLS =           0.0000                 WELLS =           0.0000
     HEAD DEP BOUNDS =       13272.4150       HEAD DEP BOUNDS =         285.3653

            TOTAL IN =      419875.3125              TOTAL IN =        1528.6272

          OUT:                                     OUT:
          ----                                     ----
             STORAGE =           0.0000               STORAGE =           0.0000
       CONSTANT HEAD =           0.0000         CONSTANT HEAD =           0.0000
               WELLS =       30000.0000                 WELLS =         500.0000
     HEAD DEP BOUNDS =      389876.9375       HEAD DEP BOUNDS =        1028.6222

           TOTAL OUT =      419876.9375             TOTAL OUT =        1528.6222

            IN - OUT =          -1.6250              IN - OUT =       5.0049E-03

 PERCENT DISCREPANCY =          -0.00     PERCENT DISCREPANCY =           0.00






         TIME SUMMARY AT END OF TIME STEP   60 IN STRESS PERIOD    3
                    SECONDS     MINUTES      HOURS       DAYS        YEARS
                    -----------------------------------------------------------
   TIME STEP LENGTH  86400.      1440.0      24.000      1.0000     2.73785E-03
 STRESS PERIOD TIME 5.18400E+06  86400.      1440.0      60.000     0.16427    
         TOTAL TIME 1.39104E+07 2.31840E+05  3864.0      161.00     0.44079    
1
 
 SOLVING FOR HEAD 

 OUTPUT CONTROL FOR STRESS PERIOD    3   TIME STEP   61
    SAVE HEAD FOR ALL LAYERS
    SAVE DRAWDOWN FOR ALL LAYERS
    SAVE BUDGET
    PRINT HEAD FOR ALL LAYERS
    PRINT BUDGET
 UBDSV1 SAVING "         STORAGE" ON UNIT  53 AT TIME STEP 61, STRESS PERIOD   3
 UBDSV2 SAVING "   CONSTANT HEAD" ON UNIT  53 AT TIME STEP 61, STRESS PERIOD   3
 UBDSV1 SAVING "FLOW RIGHT FACE " ON UNIT  53 AT TIME STEP 61, STRESS PERIOD   3
 UBDSV1 SAVING "FLOW FRONT FACE " ON UNIT  53 AT TIME STEP 61, STRESS PERIOD   3
 UBDSV1 SAVING "FLOW LOWER FACE " ON UNIT  53 AT TIME STEP 61, STRESS PERIOD   3
1
              HEAD IN LAYER   1 AT END OF TIME STEP  61 IN STRESS PERIOD    3
  ---------------------------------------------------------------------------

            1           2           3           4           5           6           7           8           9          10
 ........................................................................................................................
   1    9.999       9.584       9.098       8.482       7.695       6.704       5.451       3.900       2.064      2.9574E-03
   2    9.999       9.560       9.041       8.383       7.567       6.603       5.390       3.870       2.053      2.9387E-03
   3    9.999       9.510       8.917       8.146       7.223       6.359       5.258       3.809       2.030      2.9034E-03
   4    9.999       9.446       8.735       7.718       6.390       5.916       5.063       3.730       2.003      2.8615E-03
   5    9.999       9.406       8.590       7.180       3.569       5.353       4.905       3.682       1.988      2.8391E-03
   6    9.999       9.447       8.736       7.720       6.391       5.918       5.064       3.731       2.003      2.8619E-03
   7    9.999       9.512       8.921       8.151       7.228       6.364       5.262       3.811       2.031      2.9050E-03
   8    9.999       9.564       9.050       8.396       7.581       6.616       5.400       3.875       2.055      2.9427E-03
   9    9.999       9.595       9.120       8.515       7.733       6.738       5.475       3.914       2.070      2.9670E-03
  10    9.999       9.608       9.150       8.562       7.789       6.785       5.506       3.931       2.077      2.9779E-03
1
              HEAD IN LAYER   2 AT END OF TIME STEP  61 IN STRESS PERIOD    3
  ---------------------------------------------------------------------------

            1           2           3           4           5           6           7           8           9          10
 ........................................................................................................................
   1    9.999       9.578       9.086       8.465       7.676       6.684       5.432       3.884       2.054      5.6581E-03
   2    9.999       9.553       9.028       8.365       7.545       6.581       5.370       3.853       2.041      5.6242E-03
   3    9.999       9.503       8.903       8.126       7.199       6.335       5.236       3.791       2.018      5.5600E-03
   4    9.999       9.438       8.719       7.695       6.366       5.890       5.040       3.712       1.991      5.4842E-03
   5    9.998       9.397       8.572       7.158       3.999       5.331       4.882       3.663       1.976      5.4437E-03
   6    9.999       9.439       8.720       7.696       6.368       5.892       5.041       3.713       1.991      5.4852E-03
   7    9.999       9.505       8.906       8.131       7.205       6.340       5.240       3.793       2.019      5.5628E-03
   8    9.999       9.558       9.037       8.379       7.561       6.594       5.380       3.859       2.044      5.6316E-03
   9    9.999       9.589       9.110       8.500       7.715       6.718       5.456       3.898       2.060      5.6755E-03
  10    9.999       9.603       9.140       8.548       7.772       6.767       5.488       3.916       2.067      5.6955E-03
1
              HEAD IN LAYER   3 AT END OF TIME STEP  61 IN STRESS PERIOD    3
  ---------------------------------------------------------------------------

            1           2           3           4           5           6           7           8           9          10
 ........................................................................................................................
   1    9.999       9.574       9.078       8.454       7.661       6.668       5.416       3.871       2.044      6.0639E-03
   2    9.999       9.549       9.019       8.352       7.530       6.564       5.354       3.839       2.032      6.0270E-03
   3    9.999       9.498       8.893       8.111       7.182       6.317       5.219       3.776       2.008      5.9572E-03
   4    9.999       9.432       8.708       7.678       6.355       5.870       5.021       3.696       1.980      5.8753E-03
   5    9.998       9.391       8.560       7.147       4.337       5.321       4.863       3.647       1.966      5.8316E-03
   6    9.999       9.433       8.709       7.680       6.357       5.872       5.022       3.697       1.981      5.8764E-03
   7    9.999       9.500       8.896       8.117       7.187       6.322       5.223       3.779       2.009      5.9604E-03
   8    9.999       9.553       9.029       8.366       7.546       6.578       5.364       3.845       2.034      6.0352E-03
   9    9.999       9.586       9.102       8.489       7.702       6.704       5.442       3.885       2.051      6.0831E-03
  10    9.999       9.600       9.133       8.538       7.760       6.753       5.474       3.903       2.058      6.1050E-03
1
              HEAD IN LAYER   4 AT END OF TIME STEP  61 IN STRESS PERIOD    3
  ---------------------------------------------------------------------------

            1           2           3           4           5           6           7           8           9          10
 ........................................................................................................................
   1    9.999       9.572       9.074       8.448       7.654       6.660       5.409       3.864       2.039      6.0951E-03
   2    9.999       9.546       9.015       8.346       7.522       6.556       5.346       3.832       2.027      6.0577E-03
   3    9.999       9.495       8.888       8.104       7.173       6.307       5.210       3.769       2.003      5.9869E-03
   4    9.999       9.429       8.702       7.670       6.351       5.861       5.012       3.689       1.975      5.9039E-03
   5    9.998       9.388       8.554       7.144       4.499       5.317       4.854       3.639       1.960      5.8598E-03
   6    9.999       9.430       8.703       7.672       6.353       5.862       5.013       3.689       1.975      5.9050E-03
   7    9.999       9.497       8.891       8.109       7.179       6.313       5.214       3.771       2.004      5.9902E-03
   8    9.999       9.551       9.025       8.360       7.538       6.570       5.356       3.838       2.029      6.0661E-03
   9    9.999       9.584       9.099       8.484       7.695       6.697       5.434       3.879       2.046      6.1149E-03
  10    9.999       9.598       9.130       8.533       7.754       6.746       5.467       3.897       2.053      6.1372E-03

 HEAD WILL BE SAVED ON UNIT   51 AT END OF TIME STEP   61, STRESS PERIOD    3

 DRAWDOWN WILL BE SAVED ON UNIT   52 AT END OF TIME STEP   61, STRESS PERIOD    3
1
  VOLUMETRIC BUDGET FOR ENTIRE MODEL AT END OF TIME STEP   61, STRESS PERIOD   3
  ------------------------------------------------------------------------------

     CUMULATIVE VOLUMES      L**3       RATES FOR THIS TIME STEP      L**3/T
     ------------------                 ------------------------

           IN:                                      IN:
           ---                                      ---
             STORAGE =      407838.5000               STORAGE =        1235.5845
       CONSTANT HEAD =           0.0000         CONSTANT HEAD =           0.0000
               WELLS =           0.0000                 WELLS =           0.0000
     HEAD DEP BOUNDS =       13561.3662       HEAD DEP BOUNDS =         288.9513

            TOTAL IN =      421399.8750              TOTAL IN =        1524.5358

          OUT:                                     OUT:
          ----                                     ----
             STORAGE =           0.0000               STORAGE =           0.0000
       CONSTANT HEAD =           0.0000         CONSTANT HEAD =           0.0000
               WELLS =       30500.0000                 WELLS =         500.0000
     HEAD DEP BOUNDS =      390901.4688       HEAD DEP BOUNDS =        1024.5385

           TOTAL OUT =      421401.4688             TOTAL OUT =        1524.5385

            IN - OUT =          -1.5938              IN - OUT =      -2.6855E-03

 PERCENT DISCREPANCY =          -0.00     PERCENT DISCREPANCY =          -0.00






         TIME SUMMARY AT END OF TIME STEP   61 IN STRESS PERIOD    3
                    SECONDS     MINUTES      HOURS       DAYS        YEARS
                    -----------------------------------------------------------
   TIME STEP LENGTH  86400.      1440.0      24.000      1.0000     2.73785E-03
 STRESS PERIOD TIME 5.27040E+06  87840.      1464.0      61.000     0.16701    
         TOTAL TIME 1.39968E+07 2.33280E+05  3888.0      162.00     0.44353    
1
 
 SOLVING FOR HEAD 

 OUTPUT CONTROL FOR STRESS PERIOD    3   TIME STEP   62
    SAVE HEAD FOR ALL LAYERS
    SAVE DRAWDOWN FOR ALL LAYERS
    SAVE BUDGET
    PRINT HEAD FOR ALL LAYERS
    PRINT BUDGET
 UBDSV1 SAVING "         STORAGE" ON UNIT  53 AT TIME STEP 62, STRESS PERIOD   3
 UBDSV2 SAVING "   CONSTANT HEAD" ON UNIT  53 AT TIME STEP 62, STRESS PERIOD   3
 UBDSV1 SAVING "FLOW RIGHT FACE " ON UNIT  53 AT TIME STEP 62, STRESS PERIOD   3
 UBDSV1 SAVING "FLOW FRONT FACE " ON UNIT  53 AT TIME STEP 62, STRESS PERIOD   3
 UBDSV1 SAVING "FLOW LOWER FACE " ON UNIT  53 AT TIME STEP 62, STRESS PERIOD   3
1
              HEAD IN LAYER   1 AT END OF TIME STEP  62 IN STRESS PERIOD    3
  ---------------------------------------------------------------------------

            1           2           3           4           5           6           7           8           9          10
 ........................................................................................................................
   1    9.999       9.579       9.087       8.467       7.678       6.686       5.434       3.887       2.057      2.9458E-03
   2    9.999       9.554       9.029       8.367       7.548       6.583       5.372       3.856       2.045      2.9269E-03
   3    9.999       9.504       8.904       8.128       7.202       6.337       5.238       3.794       2.021      2.8906E-03
   4    9.999       9.439       8.721       7.698       6.365       5.892       5.041       3.714       1.994      2.8480E-03
   5    9.999       9.398       8.575       7.159       3.542       5.327       4.883       3.665       1.979      2.8251E-03
   6    9.999       9.440       8.722       7.699       6.367       5.893       5.042       3.715       1.994      2.8485E-03
   7    9.999       9.506       8.908       8.133       7.207       6.342       5.242       3.796       2.022      2.8922E-03
   8    9.999       9.559       9.039       8.380       7.563       6.597       5.382       3.862       2.047      2.9311E-03
   9    9.999       9.590       9.111       8.502       7.717       6.721       5.459       3.901       2.063      2.9558E-03
  10    9.999       9.604       9.141       8.549       7.774       6.769       5.491       3.919       2.071      2.9672E-03
1
              HEAD IN LAYER   2 AT END OF TIME STEP  62 IN STRESS PERIOD    3
  ---------------------------------------------------------------------------

            1           2           3           4           5           6           7           8           9          10
 ........................................................................................................................
   1    9.999       9.573       9.076       8.451       7.658       6.665       5.415       3.871       2.046      5.6376E-03
   2    9.999       9.547       9.017       8.349       7.527       6.561       5.352       3.839       2.034      5.6029E-03
   3    9.999       9.496       8.890       8.108       7.178       6.313       5.216       3.776       2.010      5.5372E-03
   4    9.999       9.431       8.705       7.675       6.342       5.866       5.018       3.696       1.982      5.4601E-03
   5    9.998       9.390       8.558       7.136       3.972       5.306       4.860       3.646       1.967      5.4190E-03
   6    9.999       9.431       8.706       7.676       6.344       5.867       5.019       3.697       1.983      5.4611E-03
   7    9.999       9.498       8.894       8.113       7.183       6.318       5.220       3.779       2.011      5.5402E-03
   8    9.999       9.552       9.027       8.363       7.542       6.575       5.362       3.845       2.037      5.6107E-03
   9    9.999       9.584       9.100       8.486       7.699       6.701       5.440       3.886       2.053      5.6559E-03
  10    9.999       9.599       9.131       8.535       7.757       6.751       5.473       3.904       2.060      5.6766E-03
1
              HEAD IN LAYER   3 AT END OF TIME STEP  62 IN STRESS PERIOD    3
  ---------------------------------------------------------------------------

            1           2           3           4           5           6           7           8           9          10
 ........................................................................................................................
   1    9.999       9.569       9.068       8.439       7.644       6.650       5.400       3.858       2.037      6.0421E-03
   2    9.999       9.543       9.008       8.337       7.511       6.545       5.336       3.825       2.024      6.0043E-03
   3    9.999       9.491       8.880       8.094       7.160       6.295       5.199       3.762       2.000      5.9330E-03
   4    9.999       9.425       8.694       7.658       6.331       5.846       5.000       3.681       1.972      5.8496E-03
   5    9.998       9.384       8.546       7.126       4.311       5.295       4.841       3.631       1.957      5.8053E-03
   6    9.999       9.426       8.695       7.660       6.333       5.848       5.001       3.681       1.972      5.8508E-03
   7    9.999       9.493       8.884       8.099       7.166       6.300       5.203       3.764       2.001      5.9364E-03
   8    9.999       9.548       9.018       8.351       7.528       6.559       5.346       3.832       2.027      6.0130E-03
   9    9.999       9.581       9.093       8.476       7.686       6.687       5.426       3.873       2.043      6.0623E-03
  10    9.999       9.595       9.124       8.525       7.745       6.737       5.459       3.891       2.051      6.0849E-03
1
              HEAD IN LAYER   4 AT END OF TIME STEP  62 IN STRESS PERIOD    3
  ---------------------------------------------------------------------------

            1           2           3           4           5           6           7           8           9          10
 ........................................................................................................................
   1    9.999       9.566       9.064       8.434       7.637       6.642       5.392       3.851       2.032      6.0733E-03
   2    9.999       9.541       9.004       8.330       7.504       6.536       5.328       3.818       2.019      6.0349E-03
   3    9.999       9.489       8.875       8.086       7.152       6.286       5.190       3.754       1.995      5.9626E-03
   4    9.999       9.422       8.688       7.650       6.327       5.837       4.991       3.673       1.966      5.8782E-03
   5    9.998       9.381       8.540       7.123       4.473       5.292       4.832       3.623       1.951      5.8334E-03
   6    9.999       9.423       8.689       7.652       6.329       5.838       4.992       3.674       1.967      5.8794E-03
   7    9.999       9.491       8.879       8.092       7.158       6.291       5.195       3.757       1.996      5.9661E-03
   8    9.999       9.546       9.014       8.345       7.520       6.551       5.339       3.825       2.022      6.0438E-03
   9    9.999       9.579       9.089       8.471       7.679       6.680       5.419       3.866       2.039      6.0940E-03
  10    9.999       9.593       9.121       8.520       7.739       6.730       5.452       3.885       2.047      6.1170E-03

 HEAD WILL BE SAVED ON UNIT   51 AT END OF TIME STEP   62, STRESS PERIOD    3

 DRAWDOWN WILL BE SAVED ON UNIT   52 AT END OF TIME STEP   62, STRESS PERIOD    3
1
  VOLUMETRIC BUDGET FOR ENTIRE MODEL AT END OF TIME STEP   62, STRESS PERIOD   3
  ------------------------------------------------------------------------------

     CUMULATIVE VOLUMES      L**3       RATES FOR THIS TIME STEP      L**3/T
     ------------------                 ------------------------

           IN:                                      IN:
           ---                                      ---
             STORAGE =      409066.4688               STORAGE =        1227.9535
       CONSTANT HEAD =           0.0000         CONSTANT HEAD =           0.0000
               WELLS =           0.0000                 WELLS =           0.0000
     HEAD DEP BOUNDS =       13853.8984       HEAD DEP BOUNDS =         292.5318

            TOTAL IN =      422920.3750              TOTAL IN =        1520.4854

          OUT:                                     OUT:
          ----                                     ----
             STORAGE =           0.0000               STORAGE =           0.0000
       CONSTANT HEAD =           0.0000         CONSTANT HEAD =           0.0000
               WELLS =       31000.0000                 WELLS =         500.0000
     HEAD DEP BOUNDS =      391921.9375       HEAD DEP BOUNDS =        1020.4839

           TOTAL OUT =      422921.9375             TOTAL OUT =        1520.4839

            IN - OUT =          -1.5625              IN - OUT =       1.4648E-03

 PERCENT DISCREPANCY =          -0.00     PERCENT DISCREPANCY =           0.00






         TIME SUMMARY AT END OF TIME STEP   62 IN STRESS PERIOD    3
                    SECONDS     MINUTES      HOURS       DAYS        YEARS
                    -----------------------------------------------------------
   TIME STEP LENGTH  86400.      1440.0      24.000      1.0000     2.73785E-03
 STRESS PERIOD TIME 5.35680E+06  89280.      1488.0      62.000     0.16975    
         TOTAL TIME 1.40832E+07 2.34720E+05  3912.0      163.00     0.44627    
1
 
 SOLVING FOR HEAD 

 OUTPUT CONTROL FOR STRESS PERIOD    3   TIME STEP   63
    SAVE HEAD FOR ALL LAYERS
    SAVE DRAWDOWN FOR ALL LAYERS
    SAVE BUDGET
    PRINT HEAD FOR ALL LAYERS
    PRINT BUDGET
 UBDSV1 SAVING "         STORAGE" ON UNIT  53 AT TIME STEP 63, STRESS PERIOD   3
 UBDSV2 SAVING "   CONSTANT HEAD" ON UNIT  53 AT TIME STEP 63, STRESS PERIOD   3
 UBDSV1 SAVING "FLOW RIGHT FACE " ON UNIT  53 AT TIME STEP 63, STRESS PERIOD   3
 UBDSV1 SAVING "FLOW FRONT FACE " ON UNIT  53 AT TIME STEP 63, STRESS PERIOD   3
 UBDSV1 SAVING "FLOW LOWER FACE " ON UNIT  53 AT TIME STEP 63, STRESS PERIOD   3
1
              HEAD IN LAYER   1 AT END OF TIME STEP  63 IN STRESS PERIOD    3
  ---------------------------------------------------------------------------

            1           2           3           4           5           6           7           8           9          10
 ........................................................................................................................
   1    9.999       9.573       9.077       8.453       7.660       6.668       5.417       3.874       2.050      2.9345E-03
   2    9.999       9.548       9.018       8.351       7.529       6.563       5.354       3.842       2.037      2.9148E-03
   3    9.999       9.497       8.892       8.110       7.180       6.315       5.219       3.779       2.013      2.8778E-03
   4    9.999       9.432       8.707       7.678       6.341       5.867       5.020       3.698       1.985      2.8344E-03
   5    9.999       9.391       8.560       7.138       3.516       5.301       4.861       3.649       1.970      2.8113E-03
   6    9.999       9.433       8.708       7.679       6.343       5.869       5.021       3.699       1.986      2.8350E-03
   7    9.999       9.499       8.896       8.116       7.186       6.320       5.223       3.781       2.014      2.8796E-03
   8    9.999       9.553       9.028       8.365       7.545       6.578       5.365       3.848       2.040      2.9192E-03
   9    9.999       9.585       9.101       8.488       7.701       6.704       5.443       3.889       2.056      2.9446E-03
  10    9.999       9.599       9.132       8.537       7.759       6.753       5.476       3.907       2.064      2.9564E-03
1
              HEAD IN LAYER   2 AT END OF TIME STEP  63 IN STRESS PERIOD    3
  ---------------------------------------------------------------------------

            1           2           3           4           5           6           7           8           9          10
 ........................................................................................................................
   1    9.999       9.567       9.066       8.436       7.641       6.647       5.398       3.858       2.039      5.6172E-03
   2    9.999       9.542       9.006       8.333       7.508       6.542       5.334       3.826       2.026      5.5817E-03
   3    9.999       9.490       8.877       8.090       7.156       6.291       5.197       3.761       2.002      5.5145E-03
   4    9.999       9.424       8.691       7.655       6.319       5.842       4.997       3.680       1.974      5.4360E-03
   5    9.998       9.382       8.543       7.116       3.945       5.281       4.838       3.630       1.958      5.3944E-03
   6    9.999       9.424       8.692       7.656       6.321       5.844       4.998       3.681       1.974      5.4371E-03
   7    9.999       9.492       8.881       8.096       7.163       6.297       5.201       3.764       2.003      5.5177E-03
   8    9.999       9.547       9.016       8.348       7.524       6.556       5.345       3.832       2.029      5.5899E-03
   9    9.999       9.580       9.091       8.473       7.683       6.684       5.425       3.873       2.046      5.6363E-03
  10    9.999       9.594       9.122       8.523       7.742       6.735       5.458       3.892       2.054      5.6577E-03
1
              HEAD IN LAYER   3 AT END OF TIME STEP  63 IN STRESS PERIOD    3
  ---------------------------------------------------------------------------

            1           2           3           4           5           6           7           8           9          10
 ........................................................................................................................
   1    9.999       9.563       9.058       8.425       7.627       6.632       5.383       3.845       2.029      6.0204E-03
   2    9.999       9.537       8.997       8.321       7.492       6.525       5.318       3.812       2.016      5.9818E-03
   3    9.999       9.485       8.868       8.076       7.139       6.273       5.180       3.747       1.992      5.9089E-03
   4    9.999       9.418       8.680       7.639       6.308       5.822       4.979       3.665       1.963      5.8241E-03
   5    9.998       9.376       8.531       7.105       4.285       5.270       4.819       3.615       1.948      5.7793E-03
   6    9.999       9.419       8.681       7.640       6.310       5.824       4.980       3.666       1.964      5.8253E-03
   7    9.999       9.487       8.872       8.081       7.145       6.279       5.184       3.749       1.993      5.9125E-03
   8    9.999       9.542       9.008       8.336       7.510       6.540       5.329       3.818       2.019      5.9909E-03
   9    9.999       9.576       9.083       8.463       7.670       6.670       5.410       3.861       2.037      6.0416E-03
  10    9.999       9.591       9.115       8.513       7.730       6.721       5.444       3.879       2.044      6.0649E-03
1
              HEAD IN LAYER   4 AT END OF TIME STEP  63 IN STRESS PERIOD    3
  ---------------------------------------------------------------------------

            1           2           3           4           5           6           7           8           9          10
 ........................................................................................................................
   1    9.999       9.561       9.054       8.419       7.620       6.624       5.375       3.838       2.025      6.0515E-03
   2    9.999       9.535       8.992       8.315       7.485       6.517       5.310       3.805       2.011      6.0123E-03
   3    9.999       9.482       8.863       8.069       7.131       6.264       5.171       3.740       1.987      5.9385E-03
   4    9.999       9.415       8.674       7.631       6.304       5.813       4.970       3.657       1.958      5.8526E-03
   5    9.998       9.373       8.525       7.102       4.447       5.267       4.810       3.607       1.943      5.8073E-03
   6    9.999       9.416       8.676       7.632       6.306       5.815       4.971       3.658       1.958      5.8538E-03
   7    9.999       9.485       8.867       8.074       7.137       6.270       5.175       3.742       1.988      5.9422E-03
   8    9.999       9.540       9.003       8.330       7.502       6.532       5.321       3.812       2.015      6.0216E-03
   9    9.999       9.574       9.080       8.457       7.663       6.663       5.403       3.854       2.032      6.0732E-03
  10    9.999       9.589       9.112       8.508       7.724       6.714       5.437       3.873       2.040      6.0969E-03

 HEAD WILL BE SAVED ON UNIT   51 AT END OF TIME STEP   63, STRESS PERIOD    3

 DRAWDOWN WILL BE SAVED ON UNIT   52 AT END OF TIME STEP   63, STRESS PERIOD    3
1
  VOLUMETRIC BUDGET FOR ENTIRE MODEL AT END OF TIME STEP   63, STRESS PERIOD   3
  ------------------------------------------------------------------------------

     CUMULATIVE VOLUMES      L**3       RATES FOR THIS TIME STEP      L**3/T
     ------------------                 ------------------------

           IN:                                      IN:
           ---                                      ---
             STORAGE =      410286.8125               STORAGE =        1220.3506
       CONSTANT HEAD =           0.0000         CONSTANT HEAD =           0.0000
               WELLS =           0.0000                 WELLS =           0.0000
     HEAD DEP BOUNDS =       14149.9893       HEAD DEP BOUNDS =         296.0912

            TOTAL IN =      424436.8125              TOTAL IN =        1516.4418

          OUT:                                     OUT:
          ----                                     ----
             STORAGE =           0.0000               STORAGE =           0.0000
       CONSTANT HEAD =           0.0000         CONSTANT HEAD =           0.0000
               WELLS =       31500.0000                 WELLS =         500.0000
     HEAD DEP BOUNDS =      392938.3750       HEAD DEP BOUNDS =        1016.4485

           TOTAL OUT =      424438.3750             TOTAL OUT =        1516.4485

            IN - OUT =          -1.5625              IN - OUT =      -6.7139E-03

 PERCENT DISCREPANCY =          -0.00     PERCENT DISCREPANCY =          -0.00






         TIME SUMMARY AT END OF TIME STEP   63 IN STRESS PERIOD    3
                    SECONDS     MINUTES      HOURS       DAYS        YEARS
                    -----------------------------------------------------------
   TIME STEP LENGTH  86400.      1440.0      24.000      1.0000     2.73785E-03
 STRESS PERIOD TIME 5.44320E+06  90720.      1512.0      63.000     0.17248    
         TOTAL TIME 1.41696E+07 2.36160E+05  3936.0      164.00     0.44901    
1
 
 SOLVING FOR HEAD 

 OUTPUT CONTROL FOR STRESS PERIOD    3   TIME STEP   64
    SAVE HEAD FOR ALL LAYERS
    SAVE DRAWDOWN FOR ALL LAYERS
    SAVE BUDGET
    PRINT HEAD FOR ALL LAYERS
    PRINT BUDGET
 UBDSV1 SAVING "         STORAGE" ON UNIT  53 AT TIME STEP 64, STRESS PERIOD   3
 UBDSV2 SAVING "   CONSTANT HEAD" ON UNIT  53 AT TIME STEP 64, STRESS PERIOD   3
 UBDSV1 SAVING "FLOW RIGHT FACE " ON UNIT  53 AT TIME STEP 64, STRESS PERIOD   3
 UBDSV1 SAVING "FLOW FRONT FACE " ON UNIT  53 AT TIME STEP 64, STRESS PERIOD   3
 UBDSV1 SAVING "FLOW LOWER FACE " ON UNIT  53 AT TIME STEP 64, STRESS PERIOD   3
1
              HEAD IN LAYER   1 AT END OF TIME STEP  64 IN STRESS PERIOD    3
  ---------------------------------------------------------------------------

            1           2           3           4           5           6           7           8           9          10
 ........................................................................................................................
   1    9.999       9.568       9.067       8.438       7.643       6.649       5.401       3.861       2.042      2.9230E-03
   2    9.999       9.542       9.007       8.335       7.510       6.544       5.336       3.828       2.029      2.9028E-03
   3    9.999       9.491       8.879       8.092       7.159       6.293       5.199       3.764       2.005      2.8651E-03
   4    9.999       9.425       8.693       7.658       6.317       5.843       4.999       3.682       1.976      2.8209E-03
   5    9.998       9.384       8.546       7.117       3.489       5.276       4.839       3.632       1.961      2.7976E-03
   6    9.999       9.426       8.694       7.659       6.319       5.845       5.000       3.683       1.977      2.8216E-03
   7    9.999       9.493       8.883       8.098       7.165       6.299       5.203       3.767       2.006      2.8668E-03
   8    9.999       9.548       9.017       8.350       7.526       6.559       5.347       3.835       2.032      2.9075E-03
   9    9.999       9.580       9.092       8.475       7.685       6.687       5.427       3.876       2.049      2.9339E-03
  10    9.999       9.595       9.123       8.524       7.744       6.737       5.461       3.895       2.057      2.9458E-03
1
              HEAD IN LAYER   2 AT END OF TIME STEP  64 IN STRESS PERIOD    3
  ---------------------------------------------------------------------------

            1           2           3           4           5           6           7           8           9          10
 ........................................................................................................................
   1    9.999       9.562       9.055       8.422       7.623       6.629       5.381       3.845       2.032      5.5969E-03
   2    9.999       9.536       8.994       8.318       7.489       6.522       5.316       3.812       2.019      5.5605E-03
   3    9.999       9.484       8.865       8.072       7.135       6.270       5.178       3.747       1.994      5.4920E-03
   4    9.999       9.417       8.677       7.635       6.295       5.818       4.976       3.664       1.965      5.4122E-03
   5    9.998       9.375       8.529       7.095       3.919       5.256       4.816       3.614       1.950      5.3700E-03
   6    9.999       9.417       8.678       7.637       6.297       5.820       4.977       3.665       1.965      5.4133E-03
   7    9.999       9.486       8.869       8.078       7.142       6.275       5.182       3.749       1.995      5.4954E-03
   8    9.999       9.541       9.005       8.333       7.506       6.537       5.328       3.819       2.022      5.5692E-03
   9    9.999       9.575       9.081       8.460       7.667       6.667       5.409       3.861       2.039      5.6170E-03
  10    9.999       9.590       9.114       8.510       7.727       6.719       5.443       3.880       2.047      5.6390E-03
1
              HEAD IN LAYER   3 AT END OF TIME STEP  64 IN STRESS PERIOD    3
  ---------------------------------------------------------------------------

            1           2           3           4           5           6           7           8           9          10
 ........................................................................................................................
   1    9.999       9.558       9.047       8.410       7.609       6.614       5.366       3.832       2.022      5.9989E-03
   2    9.999       9.531       8.986       8.305       7.474       6.506       5.300       3.798       2.009      5.9593E-03
   3    9.999       9.479       8.855       8.058       7.118       6.252       5.160       3.732       1.984      5.8850E-03
   4    9.999       9.411       8.666       7.619       6.284       5.799       4.958       3.649       1.955      5.7988E-03
   5    9.998       9.369       8.517       7.085       4.259       5.246       4.798       3.599       1.939      5.7533E-03
   6    9.999       9.412       8.667       7.621       6.286       5.801       4.959       3.650       1.955      5.8001E-03
   7    9.999       9.481       8.859       8.064       7.125       6.258       5.165       3.735       1.985      5.8888E-03
   8    9.999       9.537       8.997       8.321       7.492       6.522       5.312       3.805       2.012      5.9689E-03
   9    9.999       9.571       9.074       8.449       7.654       6.653       5.394       3.848       2.030      6.0210E-03
  10    9.999       9.586       9.107       8.500       7.715       6.705       5.429       3.867       2.038      6.0450E-03
1
              HEAD IN LAYER   4 AT END OF TIME STEP  64 IN STRESS PERIOD    3
  ---------------------------------------------------------------------------

            1           2           3           4           5           6           7           8           9          10
 ........................................................................................................................
   1    9.999       9.556       9.043       8.405       7.602       6.606       5.359       3.825       2.017      6.0299E-03
   2    9.999       9.529       8.981       8.299       7.466       6.497       5.292       3.791       2.004      5.9897E-03
   3    9.999       9.476       8.850       8.051       7.110       6.243       5.152       3.725       1.979      5.9144E-03
   4    9.999       9.408       8.660       7.611       6.280       5.789       4.949       3.642       1.949      5.8272E-03
   5    9.998       9.366       8.511       7.081       4.422       5.242       4.789       3.591       1.934      5.7813E-03
   6    9.999       9.409       8.662       7.613       6.283       5.791       4.950       3.643       1.950      5.8285E-03
   7    9.999       9.478       8.855       8.057       7.116       6.249       5.156       3.728       1.980      5.9184E-03
   8    9.999       9.535       8.993       8.315       7.484       6.514       5.304       3.798       2.007      5.9996E-03
   9    9.999       9.569       9.070       8.444       7.647       6.646       5.387       3.842       2.025      6.0525E-03
  10    9.999       9.584       9.103       8.496       7.709       6.699       5.423       3.861       2.033      6.0770E-03

 HEAD WILL BE SAVED ON UNIT   51 AT END OF TIME STEP   64, STRESS PERIOD    3

 DRAWDOWN WILL BE SAVED ON UNIT   52 AT END OF TIME STEP   64, STRESS PERIOD    3
1
  VOLUMETRIC BUDGET FOR ENTIRE MODEL AT END OF TIME STEP   64, STRESS PERIOD   3
  ------------------------------------------------------------------------------

     CUMULATIVE VOLUMES      L**3       RATES FOR THIS TIME STEP      L**3/T
     ------------------                 ------------------------

           IN:                                      IN:
           ---                                      ---
             STORAGE =      411499.5938               STORAGE =        1212.7855
       CONSTANT HEAD =           0.0000         CONSTANT HEAD =           0.0000
               WELLS =           0.0000                 WELLS =           0.0000
     HEAD DEP BOUNDS =       14449.6338       HEAD DEP BOUNDS =         299.6445

            TOTAL IN =      425949.2188              TOTAL IN =        1512.4299

          OUT:                                     OUT:
          ----                                     ----
             STORAGE =           0.0000               STORAGE =           0.0000
       CONSTANT HEAD =           0.0000         CONSTANT HEAD =           0.0000
               WELLS =       32000.0000                 WELLS =         500.0000
     HEAD DEP BOUNDS =      393950.8125       HEAD DEP BOUNDS =        1012.4397

           TOTAL OUT =      425950.8125             TOTAL OUT =        1512.4397

            IN - OUT =          -1.5938              IN - OUT =      -9.7656E-03

 PERCENT DISCREPANCY =          -0.00     PERCENT DISCREPANCY =          -0.00






         TIME SUMMARY AT END OF TIME STEP   64 IN STRESS PERIOD    3
                    SECONDS     MINUTES      HOURS       DAYS        YEARS
                    -----------------------------------------------------------
   TIME STEP LENGTH  86400.      1440.0      24.000      1.0000     2.73785E-03
 STRESS PERIOD TIME 5.52960E+06  92160.      1536.0      64.000     0.17522    
         TOTAL TIME 1.42560E+07 2.37600E+05  3960.0      165.00     0.45175    
1
 
 SOLVING FOR HEAD 

 OUTPUT CONTROL FOR STRESS PERIOD    3   TIME STEP   65
    SAVE HEAD FOR ALL LAYERS
    SAVE DRAWDOWN FOR ALL LAYERS
    SAVE BUDGET
    PRINT HEAD FOR ALL LAYERS
    PRINT BUDGET
 UBDSV1 SAVING "         STORAGE" ON UNIT  53 AT TIME STEP 65, STRESS PERIOD   3
 UBDSV2 SAVING "   CONSTANT HEAD" ON UNIT  53 AT TIME STEP 65, STRESS PERIOD   3
 UBDSV1 SAVING "FLOW RIGHT FACE " ON UNIT  53 AT TIME STEP 65, STRESS PERIOD   3
 UBDSV1 SAVING "FLOW FRONT FACE " ON UNIT  53 AT TIME STEP 65, STRESS PERIOD   3
 UBDSV1 SAVING "FLOW LOWER FACE " ON UNIT  53 AT TIME STEP 65, STRESS PERIOD   3
1
              HEAD IN LAYER   1 AT END OF TIME STEP  65 IN STRESS PERIOD    3
  ---------------------------------------------------------------------------

            1           2           3           4           5           6           7           8           9          10
 ........................................................................................................................
   1    9.999       9.563       9.057       8.424       7.625       6.631       5.384       3.848       2.035      2.9116E-03
   2    9.999       9.537       8.996       8.320       7.491       6.524       5.319       3.815       2.022      2.8911E-03
   3    9.999       9.485       8.867       8.075       7.138       6.272       5.180       3.749       1.997      2.8525E-03
   4    9.999       9.418       8.679       7.638       6.294       5.819       4.978       3.667       1.968      2.8077E-03
   5    9.998       9.376       8.531       7.096       3.463       5.251       4.817       3.616       1.952      2.7840E-03
   6    9.999       9.419       8.681       7.640       6.296       5.821       4.979       3.667       1.968      2.8084E-03
   7    9.999       9.487       8.871       8.080       7.144       6.278       5.184       3.752       1.998      2.8545E-03
   8    9.999       9.542       9.007       8.335       7.508       6.540       5.330       3.821       2.025      2.8960E-03
   9    9.999       9.576       9.083       8.461       7.669       6.670       5.411       3.864       2.042      2.9229E-03
  10    9.999       9.590       9.115       8.512       7.729       6.721       5.446       3.883       2.050      2.9354E-03
1
              HEAD IN LAYER   2 AT END OF TIME STEP  65 IN STRESS PERIOD    3
  ---------------------------------------------------------------------------

            1           2           3           4           5           6           7           8           9          10
 ........................................................................................................................
   1    9.999       9.557       9.045       8.407       7.606       6.611       5.365       3.832       2.024      5.5768E-03
   2    9.999       9.530       8.983       8.302       7.470       6.503       5.299       3.798       2.011      5.5395E-03
   3    9.999       9.477       8.852       8.055       7.114       6.248       5.158       3.732       1.986      5.4696E-03
   4    9.999       9.410       8.663       7.615       6.272       5.794       4.955       3.649       1.956      5.3885E-03
   5    9.998       9.368       8.514       7.074       3.893       5.231       4.794       3.598       1.941      5.3458E-03
   6    9.999       9.410       8.665       7.617       6.274       5.796       4.957       3.650       1.957      5.3897E-03
   7    9.999       9.479       8.857       8.061       7.121       6.254       5.163       3.735       1.987      5.4732E-03
   8    9.999       9.536       8.995       8.318       7.488       6.519       5.310       3.805       2.014      5.5486E-03
   9    9.999       9.570       9.072       8.446       7.651       6.650       5.393       3.849       2.032      5.5977E-03
  10    9.999       9.585       9.105       8.498       7.712       6.703       5.428       3.868       2.040      5.6204E-03
1
              HEAD IN LAYER   3 AT END OF TIME STEP  65 IN STRESS PERIOD    3
  ---------------------------------------------------------------------------

            1           2           3           4           5           6           7           8           9          10
 ........................................................................................................................
   1    9.999       9.553       9.037       8.396       7.592       6.595       5.350       3.819       2.015      5.9774E-03
   2    9.999       9.526       8.975       8.290       7.455       6.486       5.283       3.785       2.001      5.9369E-03
   3    9.999       9.472       8.843       8.041       7.097       6.230       5.141       3.718       1.976      5.8612E-03
   4    9.999       9.404       8.652       7.599       6.261       5.775       4.937       3.634       1.946      5.7736E-03
   5    9.998       9.362       8.503       7.064       4.234       5.221       4.776       3.583       1.931      5.7276E-03
   6    9.999       9.405       8.654       7.602       6.263       5.777       4.939       3.635       1.947      5.7750E-03
   7    9.999       9.474       8.847       8.047       7.104       6.237       5.146       3.721       1.977      5.8652E-03
   8    9.999       9.531       8.986       8.306       7.474       6.503       5.295       3.792       2.005      5.9470E-03
   9    9.999       9.566       9.065       8.436       7.638       6.636       5.379       3.836       2.023      6.0005E-03
  10    9.999       9.582       9.098       8.488       7.700       6.689       5.415       3.856       2.031      6.0253E-03
1
              HEAD IN LAYER   4 AT END OF TIME STEP  65 IN STRESS PERIOD    3
  ---------------------------------------------------------------------------

            1           2           3           4           5           6           7           8           9          10
 ........................................................................................................................
   1    9.999       9.551       9.033       8.390       7.585       6.588       5.342       3.812       2.010      6.0084E-03
   2    9.999       9.523       8.970       8.283       7.448       6.478       5.275       3.778       1.996      5.9673E-03
   3    9.999       9.470       8.838       8.034       7.089       6.221       5.133       3.710       1.971      5.8906E-03
   4    9.999       9.401       8.647       7.592       6.257       5.766       4.928       3.626       1.941      5.8020E-03
   5    9.998       9.359       8.497       7.061       4.397       5.218       4.767       3.575       1.925      5.7555E-03
   6    9.999       9.402       8.648       7.594       6.260       5.768       4.930       3.627       1.941      5.8034E-03
   7    9.999       9.472       8.842       8.040       7.096       6.228       5.138       3.713       1.972      5.8947E-03
   8    9.999       9.529       8.982       8.300       7.466       6.495       5.287       3.785       2.000      5.9777E-03
   9    9.999       9.564       9.061       8.431       7.631       6.629       5.372       3.830       2.018      6.0320E-03
  10    9.999       9.580       9.095       8.483       7.694       6.683       5.408       3.850       2.027      6.0572E-03

 HEAD WILL BE SAVED ON UNIT   51 AT END OF TIME STEP   65, STRESS PERIOD    3

 DRAWDOWN WILL BE SAVED ON UNIT   52 AT END OF TIME STEP   65, STRESS PERIOD    3
1
  VOLUMETRIC BUDGET FOR ENTIRE MODEL AT END OF TIME STEP   65, STRESS PERIOD   3
  ------------------------------------------------------------------------------

     CUMULATIVE VOLUMES      L**3       RATES FOR THIS TIME STEP      L**3/T
     ------------------                 ------------------------

           IN:                                      IN:
           ---                                      ---
             STORAGE =      412704.8750               STORAGE =        1205.2709
       CONSTANT HEAD =           0.0000         CONSTANT HEAD =           0.0000
               WELLS =           0.0000                 WELLS =           0.0000
     HEAD DEP BOUNDS =       14752.8135       HEAD DEP BOUNDS =         303.1796

            TOTAL IN =      427457.6875              TOTAL IN =        1508.4504

          OUT:                                     OUT:
          ----                                     ----
             STORAGE =           0.0000               STORAGE =           0.0000
       CONSTANT HEAD =           0.0000         CONSTANT HEAD =           0.0000
               WELLS =       32500.0000                 WELLS =         500.0000
     HEAD DEP BOUNDS =      394959.2812       HEAD DEP BOUNDS =        1008.4597

           TOTAL OUT =      427459.2812             TOTAL OUT =        1508.4597

            IN - OUT =          -1.5938              IN - OUT =      -9.2773E-03

 PERCENT DISCREPANCY =          -0.00     PERCENT DISCREPANCY =          -0.00






         TIME SUMMARY AT END OF TIME STEP   65 IN STRESS PERIOD    3
                    SECONDS     MINUTES      HOURS       DAYS        YEARS
                    -----------------------------------------------------------
   TIME STEP LENGTH  86400.      1440.0      24.000      1.0000     2.73785E-03
 STRESS PERIOD TIME 5.61600E+06  93600.      1560.0      65.000     0.17796    
         TOTAL TIME 1.43424E+07 2.39040E+05  3984.0      166.00     0.45448    
1
 
 SOLVING FOR HEAD 

 OUTPUT CONTROL FOR STRESS PERIOD    3   TIME STEP   66
    SAVE HEAD FOR ALL LAYERS
    SAVE DRAWDOWN FOR ALL LAYERS
    SAVE BUDGET
    PRINT HEAD FOR ALL LAYERS
    PRINT BUDGET
 UBDSV1 SAVING "         STORAGE" ON UNIT  53 AT TIME STEP 66, STRESS PERIOD   3
 UBDSV2 SAVING "   CONSTANT HEAD" ON UNIT  53 AT TIME STEP 66, STRESS PERIOD   3
 UBDSV1 SAVING "FLOW RIGHT FACE " ON UNIT  53 AT TIME STEP 66, STRESS PERIOD   3
 UBDSV1 SAVING "FLOW FRONT FACE " ON UNIT  53 AT TIME STEP 66, STRESS PERIOD   3
 UBDSV1 SAVING "FLOW LOWER FACE " ON UNIT  53 AT TIME STEP 66, STRESS PERIOD   3
1
              HEAD IN LAYER   1 AT END OF TIME STEP  66 IN STRESS PERIOD    3
  ---------------------------------------------------------------------------

            1           2           3           4           5           6           7           8           9          10
 ........................................................................................................................
   1    9.999       9.558       9.046       8.409       7.608       6.613       5.367       3.835       2.028      2.9002E-03
   2    9.999       9.531       8.985       8.304       7.473       6.505       5.301       3.801       2.014      2.8794E-03
   3    9.999       9.478       8.854       8.057       7.117       6.250       5.160       3.735       1.989      2.8400E-03
   4    9.999       9.411       8.666       7.618       6.270       5.796       4.957       3.651       1.959      2.7944E-03
   5    9.998       9.369       8.517       7.076       3.438       5.227       4.796       3.600       1.944      2.7705E-03
   6    9.999       9.412       8.667       7.620       6.273       5.798       4.958       3.652       1.960      2.7951E-03
   7    9.999       9.480       8.859       8.063       7.124       6.256       5.165       3.737       1.990      2.8420E-03
   8    9.999       9.537       8.996       8.320       7.490       6.521       5.313       3.808       2.017      2.8845E-03
   9    9.999       9.571       9.073       8.448       7.653       6.653       5.396       3.851       2.035      2.9121E-03
  10    9.999       9.586       9.106       8.499       7.714       6.705       5.431       3.871       2.043      2.9249E-03
1
              HEAD IN LAYER   2 AT END OF TIME STEP  66 IN STRESS PERIOD    3
  ---------------------------------------------------------------------------

            1           2           3           4           5           6           7           8           9          10
 ........................................................................................................................
   1    9.999       9.551       9.035       8.393       7.589       6.593       5.348       3.819       2.017      5.5567E-03
   2    9.999       9.524       8.972       8.286       7.452       6.483       5.281       3.785       2.003      5.5186E-03
   3    9.999       9.471       8.840       8.037       7.094       6.227       5.139       3.717       1.978      5.4473E-03
   4    9.999       9.403       8.650       7.596       6.249       5.771       4.934       3.633       1.948      5.3649E-03
   5    9.998       9.361       8.500       7.054       3.868       5.207       4.773       3.582       1.932      5.3217E-03
   6    9.999       9.403       8.651       7.598       6.251       5.773       4.936       3.634       1.948      5.3662E-03
   7    9.999       9.473       8.845       8.044       7.101       6.233       5.144       3.720       1.979      5.4511E-03
   8    9.999       9.530       8.984       8.303       7.470       6.500       5.293       3.792       2.007      5.5281E-03
   9    9.999       9.565       9.063       8.433       7.635       6.634       5.378       3.836       2.025      5.5785E-03
  10    9.999       9.581       9.096       8.485       7.697       6.687       5.413       3.856       2.033      5.6019E-03
1
              HEAD IN LAYER   3 AT END OF TIME STEP  66 IN STRESS PERIOD    3
  ---------------------------------------------------------------------------

            1           2           3           4           5           6           7           8           9          10
 ........................................................................................................................
   1    9.999       9.547       9.027       8.381       7.575       6.577       5.333       3.806       2.008      5.9561E-03
   2    9.999       9.520       8.964       8.274       7.437       6.467       5.265       3.771       1.994      5.9147E-03
   3    9.999       9.466       8.830       8.023       7.077       6.209       5.122       3.703       1.968      5.8375E-03
   4    9.998       9.397       8.639       7.580       6.238       5.752       4.917       3.618       1.938      5.7486E-03
   5    9.998       9.355       8.488       7.044       4.209       5.197       4.755       3.567       1.922      5.7021E-03
   6    9.998       9.398       8.640       7.582       6.240       5.754       4.918       3.619       1.938      5.7500E-03
   7    9.999       9.468       8.835       8.030       7.084       6.216       5.127       3.706       1.969      5.8418E-03
   8    9.999       9.526       8.976       8.291       7.456       6.484       5.278       3.779       1.997      5.9253E-03
   9    9.999       9.561       9.055       8.423       7.622       6.619       5.363       3.824       2.016      5.9801E-03
  10    9.999       9.577       9.089       8.476       7.685       6.674       5.400       3.844       2.024      6.0057E-03
1
              HEAD IN LAYER   4 AT END OF TIME STEP  66 IN STRESS PERIOD    3
  ---------------------------------------------------------------------------

            1           2           3           4           5           6           7           8           9          10
 ........................................................................................................................
   1    9.999       9.545       9.023       8.376       7.568       6.570       5.326       3.799       2.003      5.9870E-03
   2    9.999       9.518       8.959       8.268       7.429       6.459       5.257       3.764       1.989      5.9450E-03
   3    9.999       9.463       8.825       8.016       7.068       6.200       5.114       3.696       1.963      5.8668E-03
   4    9.998       9.394       8.633       7.572       6.234       5.743       4.908       3.611       1.933      5.7769E-03
   5    9.998       9.352       8.483       7.041       4.372       5.194       4.746       3.559       1.917      5.7299E-03
   6    9.998       9.395       8.635       7.575       6.237       5.745       4.909       3.612       1.933      5.7783E-03
   7    9.999       9.466       8.830       8.023       7.076       6.207       5.119       3.699       1.964      5.8712E-03
   8    9.999       9.524       8.971       8.285       7.448       6.476       5.270       3.772       1.993      5.9559E-03
   9    9.999       9.560       9.052       8.417       7.615       6.612       5.356       3.817       2.011      6.0115E-03
  10    9.999       9.575       9.086       8.471       7.679       6.667       5.393       3.838       2.020      6.0375E-03

 HEAD WILL BE SAVED ON UNIT   51 AT END OF TIME STEP   66, STRESS PERIOD    3

 DRAWDOWN WILL BE SAVED ON UNIT   52 AT END OF TIME STEP   66, STRESS PERIOD    3
1
  VOLUMETRIC BUDGET FOR ENTIRE MODEL AT END OF TIME STEP   66, STRESS PERIOD   3
  ------------------------------------------------------------------------------

     CUMULATIVE VOLUMES      L**3       RATES FOR THIS TIME STEP      L**3/T
     ------------------                 ------------------------

           IN:                                      IN:
           ---                                      ---
             STORAGE =      413902.6562               STORAGE =        1197.7844
       CONSTANT HEAD =           0.0000         CONSTANT HEAD =           0.0000
               WELLS =           0.0000                 WELLS =           0.0000
     HEAD DEP BOUNDS =       15059.5225       HEAD DEP BOUNDS =         306.7088

            TOTAL IN =      428962.1875              TOTAL IN =        1504.4933

          OUT:                                     OUT:
          ----                                     ----
             STORAGE =           0.0000               STORAGE =           0.0000
       CONSTANT HEAD =           0.0000         CONSTANT HEAD =           0.0000
               WELLS =       33000.0000                 WELLS =         500.0000
     HEAD DEP BOUNDS =      395963.7812       HEAD DEP BOUNDS =        1004.4993

           TOTAL OUT =      428963.7812             TOTAL OUT =        1504.4993

            IN - OUT =          -1.5938              IN - OUT =      -5.9814E-03

 PERCENT DISCREPANCY =          -0.00     PERCENT DISCREPANCY =          -0.00






         TIME SUMMARY AT END OF TIME STEP   66 IN STRESS PERIOD    3
                    SECONDS     MINUTES      HOURS       DAYS        YEARS
                    -----------------------------------------------------------
   TIME STEP LENGTH  86400.      1440.0      24.000      1.0000     2.73785E-03
 STRESS PERIOD TIME 5.70240E+06  95040.      1584.0      66.000     0.18070    
         TOTAL TIME 1.44288E+07 2.40480E+05  4008.0      167.00     0.45722    
1
 
 SOLVING FOR HEAD 

 OUTPUT CONTROL FOR STRESS PERIOD    3   TIME STEP   67
    SAVE HEAD FOR ALL LAYERS
    SAVE DRAWDOWN FOR ALL LAYERS
    SAVE BUDGET
    PRINT HEAD FOR ALL LAYERS
    PRINT BUDGET
 UBDSV1 SAVING "         STORAGE" ON UNIT  53 AT TIME STEP 67, STRESS PERIOD   3
 UBDSV2 SAVING "   CONSTANT HEAD" ON UNIT  53 AT TIME STEP 67, STRESS PERIOD   3
 UBDSV1 SAVING "FLOW RIGHT FACE " ON UNIT  53 AT TIME STEP 67, STRESS PERIOD   3
 UBDSV1 SAVING "FLOW FRONT FACE " ON UNIT  53 AT TIME STEP 67, STRESS PERIOD   3
 UBDSV1 SAVING "FLOW LOWER FACE " ON UNIT  53 AT TIME STEP 67, STRESS PERIOD   3
1
              HEAD IN LAYER   1 AT END OF TIME STEP  67 IN STRESS PERIOD    3
  ---------------------------------------------------------------------------

            1           2           3           4           5           6           7           8           9          10
 ........................................................................................................................
   1    9.999       9.552       9.036       8.395       7.591       6.595       5.350       3.822       2.020      2.8890E-03
   2    9.999       9.525       8.974       8.288       7.454       6.486       5.283       3.787       2.007      2.8675E-03
   3    9.999       9.472       8.842       8.040       7.096       6.229       5.141       3.720       1.981      2.8275E-03
   4    9.999       9.404       8.652       7.599       6.247       5.772       4.936       3.635       1.951      2.7812E-03
   5    9.998       9.362       8.503       7.056       3.412       5.202       4.774       3.584       1.935      2.7570E-03
   6    9.999       9.405       8.653       7.601       6.250       5.774       4.938       3.636       1.951      2.7820E-03
   7    9.999       9.474       8.846       8.046       7.103       6.235       5.146       3.723       1.982      2.8296E-03
   8    9.999       9.531       8.985       8.305       7.472       6.502       5.296       3.795       2.010      2.8730E-03
   9    9.999       9.566       9.064       8.435       7.637       6.636       5.380       3.839       2.028      2.9013E-03
  10    9.999       9.581       9.097       8.487       7.699       6.689       5.416       3.859       2.037      2.9145E-03
1
              HEAD IN LAYER   2 AT END OF TIME STEP  67 IN STRESS PERIOD    3
  ---------------------------------------------------------------------------

            1           2           3           4           5           6           7           8           9          10
 ........................................................................................................................
   1    9.999       9.546       9.024       8.378       7.571       6.575       5.331       3.806       2.010      5.5367E-03
   2    9.999       9.519       8.961       8.271       7.433       6.464       5.264       3.771       1.996      5.4978E-03
   3    9.999       9.465       8.828       8.020       7.073       6.206       5.120       3.703       1.970      5.4251E-03
   4    9.998       9.396       8.636       7.577       6.226       5.748       4.914       3.618       1.939      5.3415E-03
   5    9.998       9.353       8.486       7.034       3.843       5.182       4.752       3.566       1.924      5.2978E-03
   6    9.998       9.397       8.638       7.579       6.228       5.750       4.916       3.619       1.940      5.3429E-03
   7    9.999       9.467       8.833       8.027       7.080       6.212       5.125       3.706       1.971      5.4292E-03
   8    9.999       9.525       8.973       8.288       7.453       6.482       5.276       3.779       1.999      5.5078E-03
   9    9.999       9.560       9.053       8.420       7.619       6.617       5.362       3.824       2.018      5.5594E-03
  10    9.999       9.576       9.087       8.473       7.683       6.671       5.399       3.845       2.027      5.5835E-03
1
              HEAD IN LAYER   3 AT END OF TIME STEP  67 IN STRESS PERIOD    3
  ---------------------------------------------------------------------------

            1           2           3           4           5           6           7           8           9          10
 ........................................................................................................................
   1    9.999       9.542       9.016       8.367       7.557       6.559       5.317       3.793       2.001      5.9348E-03
   2    9.999       9.514       8.953       8.258       7.418       6.448       5.248       3.758       1.986      5.8926E-03
   3    9.999       9.460       8.818       8.006       7.056       6.188       5.103       3.689       1.960      5.8140E-03
   4    9.998       9.390       8.625       7.561       6.215       5.729       4.896       3.603       1.929      5.7237E-03
   5    9.998       9.348       8.475       7.024       4.184       5.173       4.734       3.551       1.913      5.6767E-03
   6    9.998       9.391       8.627       7.563       6.218       5.731       4.898       3.604       1.930      5.7253E-03
   7    9.999       9.462       8.823       8.013       7.064       6.195       5.108       3.692       1.961      5.8185E-03
   8    9.999       9.521       8.965       8.276       7.438       6.466       5.261       3.766       1.990      5.9037E-03
   9    9.999       9.557       9.046       8.409       7.606       6.603       5.348       3.812       2.009      5.9599E-03
  10    9.999       9.573       9.081       8.463       7.670       6.658       5.385       3.832       2.018      5.9861E-03
1
              HEAD IN LAYER   4 AT END OF TIME STEP  67 IN STRESS PERIOD    3
  ---------------------------------------------------------------------------

            1           2           3           4           5           6           7           8           9          10
 ........................................................................................................................
   1    9.999       9.540       9.012       8.361       7.550       6.552       5.309       3.786       1.996      5.9656E-03
   2    9.999       9.512       8.948       8.252       7.411       6.440       5.240       3.751       1.982      5.9228E-03
   3    9.999       9.457       8.813       7.999       7.048       6.179       5.095       3.682       1.955      5.8432E-03
   4    9.998       9.387       8.620       7.553       6.212       5.720       4.887       3.595       1.924      5.7519E-03
   5    9.998       9.345       8.469       7.021       4.347       5.170       4.725       3.544       1.908      5.7044E-03
   6    9.998       9.388       8.621       7.556       6.214       5.722       4.889       3.597       1.925      5.7535E-03
   7    9.999       9.460       8.818       8.006       7.056       6.186       5.100       3.685       1.956      5.8478E-03
   8    9.999       9.518       8.961       8.270       7.431       6.458       5.253       3.759       1.985      5.9342E-03
   9    9.999       9.555       9.042       8.404       7.599       6.596       5.341       3.805       2.004      5.9912E-03
  10    9.999       9.571       9.077       8.458       7.664       6.651       5.378       3.826       2.013      6.0180E-03

 HEAD WILL BE SAVED ON UNIT   51 AT END OF TIME STEP   67, STRESS PERIOD    3

 DRAWDOWN WILL BE SAVED ON UNIT   52 AT END OF TIME STEP   67, STRESS PERIOD    3
1
  VOLUMETRIC BUDGET FOR ENTIRE MODEL AT END OF TIME STEP   67, STRESS PERIOD   3
  ------------------------------------------------------------------------------

     CUMULATIVE VOLUMES      L**3       RATES FOR THIS TIME STEP      L**3/T
     ------------------                 ------------------------

           IN:                                      IN:
           ---                                      ---
             STORAGE =      415093.0000               STORAGE =        1190.3359
       CONSTANT HEAD =           0.0000         CONSTANT HEAD =           0.0000
               WELLS =           0.0000                 WELLS =           0.0000
     HEAD DEP BOUNDS =       15369.7373       HEAD DEP BOUNDS =         310.2144

            TOTAL IN =      430462.7500              TOTAL IN =        1500.5504

          OUT:                                     OUT:
          ----                                     ----
             STORAGE =           0.0000               STORAGE =           0.0000
       CONSTANT HEAD =           0.0000         CONSTANT HEAD =           0.0000
               WELLS =       33500.0000                 WELLS =         500.0000
     HEAD DEP BOUNDS =      396964.3438       HEAD DEP BOUNDS =        1000.5629

           TOTAL OUT =      430464.3438             TOTAL OUT =        1500.5629

            IN - OUT =          -1.5938              IN - OUT =      -1.2451E-02

 PERCENT DISCREPANCY =          -0.00     PERCENT DISCREPANCY =          -0.00






         TIME SUMMARY AT END OF TIME STEP   67 IN STRESS PERIOD    3
                    SECONDS     MINUTES      HOURS       DAYS        YEARS
                    -----------------------------------------------------------
   TIME STEP LENGTH  86400.      1440.0      24.000      1.0000     2.73785E-03
 STRESS PERIOD TIME 5.78880E+06  96480.      1608.0      67.000     0.18344    
         TOTAL TIME 1.45152E+07 2.41920E+05  4032.0      168.00     0.45996    
1
 
 SOLVING FOR HEAD 

 OUTPUT CONTROL FOR STRESS PERIOD    3   TIME STEP   68
    SAVE HEAD FOR ALL LAYERS
    SAVE DRAWDOWN FOR ALL LAYERS
    SAVE BUDGET
    PRINT HEAD FOR ALL LAYERS
    PRINT BUDGET
 UBDSV1 SAVING "         STORAGE" ON UNIT  53 AT TIME STEP 68, STRESS PERIOD   3
 UBDSV2 SAVING "   CONSTANT HEAD" ON UNIT  53 AT TIME STEP 68, STRESS PERIOD   3
 UBDSV1 SAVING "FLOW RIGHT FACE " ON UNIT  53 AT TIME STEP 68, STRESS PERIOD   3
 UBDSV1 SAVING "FLOW FRONT FACE " ON UNIT  53 AT TIME STEP 68, STRESS PERIOD   3
 UBDSV1 SAVING "FLOW LOWER FACE " ON UNIT  53 AT TIME STEP 68, STRESS PERIOD   3
1
              HEAD IN LAYER   1 AT END OF TIME STEP  68 IN STRESS PERIOD    3
  ---------------------------------------------------------------------------

            1           2           3           4           5           6           7           8           9          10
 ........................................................................................................................
   1    9.999       9.547       9.026       8.380       7.574       6.577       5.334       3.809       2.013      2.8778E-03
   2    9.999       9.520       8.963       8.273       7.435       6.466       5.266       3.774       1.999      2.8560E-03
   3    9.999       9.466       8.830       8.022       7.075       6.208       5.122       3.705       1.973      2.8152E-03
   4    9.999       9.397       8.638       7.580       6.224       5.749       4.916       3.620       1.942      2.7682E-03
   5    9.998       9.355       8.489       7.036       3.387       5.178       4.753       3.568       1.926      2.7437E-03
   6    9.999       9.398       8.640       7.582       6.227       5.751       4.917       3.621       1.943      2.7690E-03
   7    9.999       9.468       8.834       8.029       7.083       6.214       5.127       3.709       1.974      2.8173E-03
   8    9.999       9.526       8.975       8.290       7.455       6.484       5.279       3.782       2.003      2.8616E-03
   9    9.999       9.561       9.054       8.422       7.621       6.619       5.364       3.827       2.021      2.8907E-03
  10    9.999       9.577       9.088       8.475       7.685       6.674       5.401       3.847       2.030      2.9042E-03
1
              HEAD IN LAYER   2 AT END OF TIME STEP  68 IN STRESS PERIOD    3
  ---------------------------------------------------------------------------

            1           2           3           4           5           6           7           8           9          10
 ........................................................................................................................
   1    9.999       9.541       9.014       8.364       7.554       6.557       5.315       3.793       2.003      5.5168E-03
   2    9.999       9.513       8.950       8.255       7.415       6.445       5.246       3.758       1.988      5.4771E-03
   3    9.999       9.458       8.816       8.003       7.053       6.185       5.101       3.689       1.962      5.4031E-03
   4    9.998       9.389       8.623       7.558       6.203       5.725       4.894       3.602       1.931      5.3183E-03
   5    9.998       9.346       8.472       7.014       3.818       5.159       4.731       3.551       1.915      5.2740E-03
   6    9.998       9.390       8.624       7.560       6.206       5.727       4.895       3.604       1.932      5.3197E-03
   7    9.999       9.461       8.821       8.010       7.060       6.192       5.106       3.692       1.963      5.4074E-03
   8    9.999       9.519       8.963       8.273       7.435       6.463       5.259       3.766       1.992      5.4876E-03
   9    9.999       9.556       9.044       8.407       7.603       6.600       5.347       3.812       2.011      5.5405E-03
  10    9.999       9.572       9.079       8.461       7.668       6.656       5.384       3.833       2.020      5.5652E-03
1
              HEAD IN LAYER   3 AT END OF TIME STEP  68 IN STRESS PERIOD    3
  ---------------------------------------------------------------------------

            1           2           3           4           5           6           7           8           9          10
 ........................................................................................................................
   1    9.999       9.537       9.006       8.353       7.540       6.542       5.300       3.780       1.993      5.9137E-03
   2    9.999       9.509       8.942       8.243       7.400       6.429       5.231       3.744       1.979      5.8706E-03
   3    9.999       9.453       8.806       7.989       7.036       6.167       5.085       3.674       1.952      5.7906E-03
   4    9.998       9.383       8.612       7.542       6.193       5.706       4.876       3.588       1.921      5.6990E-03
   5    9.998       9.340       8.461       7.005       4.159       5.149       4.713       3.536       1.905      5.6515E-03
   6    9.998       9.384       8.614       7.545       6.195       5.709       4.878       3.589       1.922      5.7007E-03
   7    9.999       9.456       8.811       7.996       7.044       6.174       5.090       3.678       1.954      5.7954E-03
   8    9.999       9.515       8.955       8.261       7.420       6.447       5.244       3.753       1.983      5.8822E-03
   9    9.999       9.552       9.036       8.396       7.590       6.586       5.332       3.800       2.002      5.9397E-03
  10    9.999       9.568       9.072       8.451       7.656       6.642       5.370       3.821       2.011      5.9667E-03
1
              HEAD IN LAYER   4 AT END OF TIME STEP  68 IN STRESS PERIOD    3
  ---------------------------------------------------------------------------

            1           2           3           4           5           6           7           8           9          10
 ........................................................................................................................
   1    9.999       9.535       9.002       8.347       7.533       6.534       5.293       3.774       1.989      5.9444E-03
   2    9.999       9.506       8.937       8.237       7.392       6.421       5.223       3.738       1.974      5.9008E-03
   3    9.999       9.451       8.801       7.982       7.028       6.158       5.076       3.667       1.947      5.8198E-03
   4    9.998       9.381       8.606       7.535       6.189       5.697       4.867       3.580       1.916      5.7272E-03
   5    9.998       9.338       8.455       7.002       4.323       5.146       4.705       3.528       1.900      5.6792E-03
   6    9.998       9.382       8.608       7.537       6.192       5.700       4.869       3.581       1.917      5.7289E-03
   7    9.999       9.453       8.806       7.989       7.036       6.166       5.082       3.671       1.949      5.8246E-03
   8    9.999       9.513       8.950       8.255       7.413       6.440       5.237       3.746       1.978      5.9127E-03
   9    9.999       9.550       9.033       8.391       7.584       6.579       5.325       3.793       1.998      5.9711E-03
  10    9.999       9.566       9.068       8.446       7.650       6.636       5.364       3.815       2.007      5.9985E-03

 HEAD WILL BE SAVED ON UNIT   51 AT END OF TIME STEP   68, STRESS PERIOD    3

 DRAWDOWN WILL BE SAVED ON UNIT   52 AT END OF TIME STEP   68, STRESS PERIOD    3
1
  VOLUMETRIC BUDGET FOR ENTIRE MODEL AT END OF TIME STEP   68, STRESS PERIOD   3
  ------------------------------------------------------------------------------

     CUMULATIVE VOLUMES      L**3       RATES FOR THIS TIME STEP      L**3/T
     ------------------                 ------------------------

           IN:                                      IN:
           ---                                      ---
             STORAGE =      416275.9375               STORAGE =        1182.9296
       CONSTANT HEAD =           0.0000         CONSTANT HEAD =           0.0000
               WELLS =           0.0000                 WELLS =           0.0000
     HEAD DEP BOUNDS =       15683.4619       HEAD DEP BOUNDS =         313.7250

            TOTAL IN =      431959.4062              TOTAL IN =        1496.6545

          OUT:                                     OUT:
          ----                                     ----
             STORAGE =           0.0000               STORAGE =           0.0000
       CONSTANT HEAD =           0.0000         CONSTANT HEAD =           0.0000
               WELLS =       34000.0000                 WELLS =         500.0000
     HEAD DEP BOUNDS =      397961.0000       HEAD DEP BOUNDS =         996.6535

           TOTAL OUT =      431961.0000             TOTAL OUT =        1496.6536

            IN - OUT =          -1.5938              IN - OUT =       9.7656E-04

 PERCENT DISCREPANCY =          -0.00     PERCENT DISCREPANCY =           0.00






         TIME SUMMARY AT END OF TIME STEP   68 IN STRESS PERIOD    3
                    SECONDS     MINUTES      HOURS       DAYS        YEARS
                    -----------------------------------------------------------
   TIME STEP LENGTH  86400.      1440.0      24.000      1.0000     2.73785E-03
 STRESS PERIOD TIME 5.87520E+06  97920.      1632.0      68.000     0.18617    
         TOTAL TIME 1.46016E+07 2.43360E+05  4056.0      169.00     0.46270    
1
 
 SOLVING FOR HEAD 

 OUTPUT CONTROL FOR STRESS PERIOD    3   TIME STEP   69
    SAVE HEAD FOR ALL LAYERS
    SAVE DRAWDOWN FOR ALL LAYERS
    SAVE BUDGET
    PRINT HEAD FOR ALL LAYERS
    PRINT BUDGET
 UBDSV1 SAVING "         STORAGE" ON UNIT  53 AT TIME STEP 69, STRESS PERIOD   3
 UBDSV2 SAVING "   CONSTANT HEAD" ON UNIT  53 AT TIME STEP 69, STRESS PERIOD   3
 UBDSV1 SAVING "FLOW RIGHT FACE " ON UNIT  53 AT TIME STEP 69, STRESS PERIOD   3
 UBDSV1 SAVING "FLOW FRONT FACE " ON UNIT  53 AT TIME STEP 69, STRESS PERIOD   3
 UBDSV1 SAVING "FLOW LOWER FACE " ON UNIT  53 AT TIME STEP 69, STRESS PERIOD   3
1
              HEAD IN LAYER   1 AT END OF TIME STEP  69 IN STRESS PERIOD    3
  ---------------------------------------------------------------------------

            1           2           3           4           5           6           7           8           9          10
 ........................................................................................................................
   1    9.999       9.542       9.015       8.366       7.556       6.559       5.317       3.796       2.006      2.8667E-03
   2    9.999       9.514       8.952       8.257       7.417       6.447       5.248       3.760       1.991      2.8444E-03
   3    9.999       9.459       8.817       8.005       7.055       6.187       5.103       3.691       1.965      2.8029E-03
   4    9.999       9.390       8.625       7.561       6.202       5.726       4.895       3.605       1.934      2.7553E-03
   5    9.998       9.348       8.475       7.016       3.363       5.154       4.732       3.552       1.918      2.7306E-03
   6    9.999       9.391       8.627       7.563       6.204       5.728       4.897       3.606       1.934      2.7562E-03
   7    9.999       9.462       8.822       8.012       7.063       6.194       5.109       3.694       1.966      2.8052E-03
   8    9.999       9.520       8.964       8.275       7.437       6.465       5.262       3.769       1.995      2.8504E-03
   9    9.999       9.556       9.045       8.408       7.605       6.602       5.349       3.815       2.014      2.8800E-03
  10    9.999       9.572       9.080       8.462       7.670       6.658       5.386       3.836       2.023      2.8940E-03
1
              HEAD IN LAYER   2 AT END OF TIME STEP  69 IN STRESS PERIOD    3
  ---------------------------------------------------------------------------

            1           2           3           4           5           6           7           8           9          10
 ........................................................................................................................
   1    9.999       9.536       9.004       8.350       7.537       6.539       5.299       3.780       1.996      5.4970E-03
   2    9.999       9.507       8.939       8.240       7.397       6.426       5.229       3.744       1.981      5.4565E-03
   3    9.999       9.452       8.803       7.985       7.032       6.164       5.082       3.674       1.954      5.3813E-03
   4    9.998       9.382       8.609       7.539       6.181       5.702       4.873       3.587       1.923      5.2952E-03
   5    9.998       9.339       8.458       6.995       3.793       5.135       4.710       3.535       1.907      5.2505E-03
   6    9.998       9.383       8.611       7.541       6.183       5.704       4.875       3.588       1.923      5.2967E-03
   7    9.999       9.455       8.809       7.993       7.040       6.171       5.088       3.678       1.955      5.3858E-03
   8    9.999       9.514       8.952       8.258       7.417       6.445       5.243       3.753       1.985      5.4675E-03
   9    9.999       9.551       9.034       8.394       7.587       6.584       5.331       3.800       2.004      5.5217E-03
  10    9.999       9.567       9.070       8.448       7.653       6.640       5.369       3.821       2.014      5.5471E-03
1
              HEAD IN LAYER   3 AT END OF TIME STEP  69 IN STRESS PERIOD    3
  ---------------------------------------------------------------------------

            1           2           3           4           5           6           7           8           9          10
 ........................................................................................................................
   1    9.999       9.532       8.996       8.338       7.523       6.524       5.284       3.768       1.986      5.8927E-03
   2    9.999       9.503       8.931       8.228       7.382       6.410       5.213       3.731       1.972      5.8487E-03
   3    9.999       9.447       8.794       7.972       7.016       6.146       5.066       3.660       1.944      5.7674E-03
   4    9.998       9.377       8.599       7.524       6.170       5.684       4.856       3.573       1.913      5.6745E-03
   5    9.998       9.333       8.447       6.985       4.135       5.126       4.693       3.520       1.896      5.6265E-03
   6    9.998       9.377       8.600       7.526       6.173       5.686       4.858       3.574       1.913      5.6763E-03
   7    9.999       9.450       8.799       7.979       7.024       6.154       5.072       3.664       1.946      5.7724E-03
   8    9.999       9.510       8.944       8.247       7.403       6.429       5.228       3.740       1.976      5.8609E-03
   9    9.999       9.547       9.027       8.383       7.574       6.570       5.317       3.788       1.995      5.9197E-03
  10    9.999       9.564       9.063       8.439       7.641       6.627       5.356       3.809       2.005      5.9475E-03
1
              HEAD IN LAYER   4 AT END OF TIME STEP  69 IN STRESS PERIOD    3
  ---------------------------------------------------------------------------

            1           2           3           4           5           6           7           8           9          10
 ........................................................................................................................
   1    9.999       9.529       8.992       8.332       7.516       6.516       5.276       3.761       1.982      5.9233E-03
   2    9.999       9.501       8.926       8.221       7.374       6.402       5.206       3.724       1.967      5.8788E-03
   3    9.999       9.445       8.789       7.965       7.007       6.138       5.058       3.653       1.939      5.7965E-03
   4    9.998       9.374       8.593       7.516       6.167       5.675       4.847       3.565       1.908      5.7026E-03
   5    9.998       9.331       8.441       6.982       4.299       5.123       4.684       3.513       1.891      5.6541E-03
   6    9.998       9.375       8.595       7.518       6.170       5.677       4.849       3.566       1.908      5.7044E-03
   7    9.999       9.447       8.794       7.972       7.016       6.145       5.063       3.657       1.941      5.8016E-03
   8    9.999       9.508       8.940       8.241       7.396       6.421       5.220       3.733       1.971      5.8913E-03
   9    9.999       9.545       9.023       8.378       7.568       6.562       5.310       3.781       1.991      5.9510E-03
  10    9.999       9.562       9.060       8.434       7.635       6.620       5.349       3.803       2.000      5.9791E-03

 HEAD WILL BE SAVED ON UNIT   51 AT END OF TIME STEP   69, STRESS PERIOD    3

 DRAWDOWN WILL BE SAVED ON UNIT   52 AT END OF TIME STEP   69, STRESS PERIOD    3
1
  VOLUMETRIC BUDGET FOR ENTIRE MODEL AT END OF TIME STEP   69, STRESS PERIOD   3
  ------------------------------------------------------------------------------

     CUMULATIVE VOLUMES      L**3       RATES FOR THIS TIME STEP      L**3/T
     ------------------                 ------------------------

           IN:                                      IN:
           ---                                      ---
             STORAGE =      417451.5000               STORAGE =        1175.5703
       CONSTANT HEAD =           0.0000         CONSTANT HEAD =           0.0000
               WELLS =           0.0000                 WELLS =           0.0000
     HEAD DEP BOUNDS =       16000.6523       HEAD DEP BOUNDS =         317.1902

            TOTAL IN =      433452.1562              TOTAL IN =        1492.7605

          OUT:                                     OUT:
          ----                                     ----
             STORAGE =           0.0000               STORAGE =           0.0000
       CONSTANT HEAD =           0.0000         CONSTANT HEAD =           0.0000
               WELLS =       34500.0000                 WELLS =         500.0000
     HEAD DEP BOUNDS =      398953.7812       HEAD DEP BOUNDS =         992.7702

           TOTAL OUT =      433453.7812             TOTAL OUT =        1492.7703

            IN - OUT =          -1.6250              IN - OUT =      -9.7656E-03

 PERCENT DISCREPANCY =          -0.00     PERCENT DISCREPANCY =          -0.00






         TIME SUMMARY AT END OF TIME STEP   69 IN STRESS PERIOD    3
                    SECONDS     MINUTES      HOURS       DAYS        YEARS
                    -----------------------------------------------------------
   TIME STEP LENGTH  86400.      1440.0      24.000      1.0000     2.73785E-03
 STRESS PERIOD TIME 5.96160E+06  99360.      1656.0      69.000     0.18891    
         TOTAL TIME 1.46880E+07 2.44800E+05  4080.0      170.00     0.46543    
1
 
 SOLVING FOR HEAD 

 OUTPUT CONTROL FOR STRESS PERIOD    3   TIME STEP   70
    SAVE HEAD FOR ALL LAYERS
    SAVE DRAWDOWN FOR ALL LAYERS
    SAVE BUDGET
    PRINT HEAD FOR ALL LAYERS
    PRINT BUDGET
 UBDSV1 SAVING "         STORAGE" ON UNIT  53 AT TIME STEP 70, STRESS PERIOD   3
 UBDSV2 SAVING "   CONSTANT HEAD" ON UNIT  53 AT TIME STEP 70, STRESS PERIOD   3
 UBDSV1 SAVING "FLOW RIGHT FACE " ON UNIT  53 AT TIME STEP 70, STRESS PERIOD   3
 UBDSV1 SAVING "FLOW FRONT FACE " ON UNIT  53 AT TIME STEP 70, STRESS PERIOD   3
 UBDSV1 SAVING "FLOW LOWER FACE " ON UNIT  53 AT TIME STEP 70, STRESS PERIOD   3
1
              HEAD IN LAYER   1 AT END OF TIME STEP  70 IN STRESS PERIOD    3
  ---------------------------------------------------------------------------

            1           2           3           4           5           6           7           8           9          10
 ........................................................................................................................
   1    9.999       9.536       9.005       8.351       7.539       6.541       5.301       3.783       1.999      2.8557E-03
   2    9.999       9.508       8.941       8.242       7.399       6.428       5.231       3.747       1.984      2.8329E-03
   3    9.999       9.453       8.805       7.988       7.035       6.166       5.084       3.677       1.957      2.7906E-03
   4    9.998       9.383       8.612       7.542       6.179       5.703       4.875       3.589       1.925      2.7423E-03
   5    9.998       9.341       8.461       6.996       3.338       5.130       4.711       3.537       1.909      2.7174E-03
   6    9.998       9.384       8.613       7.544       6.182       5.706       4.877       3.590       1.926      2.7432E-03
   7    9.999       9.456       8.810       7.995       7.043       6.173       5.090       3.680       1.958      2.7931E-03
   8    9.999       9.515       8.954       8.260       7.419       6.447       5.245       3.756       1.988      2.8391E-03
   9    9.999       9.551       9.036       8.395       7.589       6.586       5.334       3.803       2.008      2.8695E-03
  10    9.999       9.568       9.071       8.450       7.655       6.642       5.372       3.824       2.017      2.8839E-03
1
              HEAD IN LAYER   2 AT END OF TIME STEP  70 IN STRESS PERIOD    3
  ---------------------------------------------------------------------------

            1           2           3           4           5           6           7           8           9          10
 ........................................................................................................................
   1    9.999       9.530       8.994       8.335       7.520       6.521       5.282       3.768       1.989      5.4774E-03
   2    9.999       9.502       8.928       8.225       7.378       6.407       5.212       3.731       1.974      5.4360E-03
   3    9.999       9.446       8.791       7.968       7.012       6.143       5.064       3.660       1.946      5.3595E-03
   4    9.998       9.375       8.596       7.520       6.158       5.679       4.853       3.572       1.914      5.2723E-03
   5    9.998       9.332       8.445       6.975       3.768       5.111       4.690       3.520       1.898      5.2271E-03
   6    9.998       9.376       8.598       7.523       6.161       5.682       4.855       3.573       1.915      5.2739E-03
   7    9.999       9.449       8.797       7.976       7.020       6.151       5.070       3.664       1.948      5.3642E-03
   8    9.999       9.509       8.942       8.244       7.400       6.426       5.226       3.740       1.978      5.4475E-03
   9    9.999       9.546       9.025       8.380       7.572       6.567       5.316       3.788       1.998      5.5029E-03
  10    9.999       9.563       9.061       8.436       7.638       6.624       5.355       3.810       2.007      5.5291E-03
1
              HEAD IN LAYER   3 AT END OF TIME STEP  70 IN STRESS PERIOD    3
  ---------------------------------------------------------------------------

            1           2           3           4           5           6           7           8           9          10
 ........................................................................................................................
   1    9.999       9.526       8.986       8.324       7.506       6.506       5.267       3.755       1.979      5.8717E-03
   2    9.999       9.497       8.920       8.212       7.364       6.391       5.196       3.718       1.964      5.8270E-03
   3    9.999       9.441       8.782       7.955       6.996       6.126       5.047       3.646       1.936      5.7442E-03
   4    9.998       9.370       8.586       7.505       6.148       5.661       4.836       3.558       1.905      5.6502E-03
   5    9.998       9.327       8.433       6.966       4.111       5.102       4.672       3.505       1.888      5.6016E-03
   6    9.998       9.371       8.587       7.508       6.151       5.664       4.838       3.559       1.905      5.6520E-03
   7    9.999       9.444       8.787       7.962       7.004       6.133       5.053       3.650       1.938      5.7495E-03
   8    9.999       9.504       8.934       8.232       7.385       6.411       5.211       3.727       1.968      5.8397E-03
   9    9.999       9.542       9.018       8.370       7.559       6.553       5.302       3.776       1.989      5.8998E-03
  10    9.999       9.559       9.054       8.426       7.626       6.611       5.341       3.798       1.998      5.9283E-03
1
              HEAD IN LAYER   4 AT END OF TIME STEP  70 IN STRESS PERIOD    3
  ---------------------------------------------------------------------------

            1           2           3           4           5           6           7           8           9          10
 ........................................................................................................................
   1    9.999       9.524       8.982       8.318       7.499       6.498       5.260       3.748       1.975      5.9023E-03
   2    9.999       9.495       8.915       8.206       7.356       6.383       5.188       3.711       1.960      5.8570E-03
   3    9.999       9.438       8.777       7.948       6.987       6.117       5.039       3.639       1.931      5.7733E-03
   4    9.998       9.367       8.580       7.497       6.145       5.652       4.827       3.550       1.900      5.6782E-03
   5    9.998       9.324       8.428       6.963       4.275       5.099       4.664       3.497       1.883      5.6292E-03
   6    9.998       9.368       8.582       7.500       6.148       5.655       4.829       3.552       1.900      5.6801E-03
   7    9.999       9.441       8.782       7.956       6.996       6.125       5.045       3.643       1.933      5.7787E-03
   8    9.999       9.502       8.929       8.226       7.378       6.403       5.204       3.721       1.964      5.8700E-03
   9    9.999       9.540       9.014       8.365       7.552       6.546       5.295       3.770       1.984      5.9310E-03
  10    9.999       9.558       9.051       8.422       7.620       6.604       5.335       3.792       1.994      5.9599E-03

 HEAD WILL BE SAVED ON UNIT   51 AT END OF TIME STEP   70, STRESS PERIOD    3

 DRAWDOWN WILL BE SAVED ON UNIT   52 AT END OF TIME STEP   70, STRESS PERIOD    3
1
  VOLUMETRIC BUDGET FOR ENTIRE MODEL AT END OF TIME STEP   70, STRESS PERIOD   3
  ------------------------------------------------------------------------------

     CUMULATIVE VOLUMES      L**3       RATES FOR THIS TIME STEP      L**3/T
     ------------------                 ------------------------

           IN:                                      IN:
           ---                                      ---
             STORAGE =      418619.7500               STORAGE =        1168.2390
       CONSTANT HEAD =           0.0000         CONSTANT HEAD =           0.0000
               WELLS =           0.0000                 WELLS =           0.0000
     HEAD DEP BOUNDS =       16321.3066       HEAD DEP BOUNDS =         320.6543

            TOTAL IN =      434941.0625              TOTAL IN =        1488.8933

          OUT:                                     OUT:
          ----                                     ----
             STORAGE =           0.0000               STORAGE =           0.0000
       CONSTANT HEAD =           0.0000         CONSTANT HEAD =           0.0000
               WELLS =       35000.0000                 WELLS =         500.0000
     HEAD DEP BOUNDS =      399942.6875       HEAD DEP BOUNDS =         988.9061

           TOTAL OUT =      434942.6875             TOTAL OUT =        1488.9061

            IN - OUT =          -1.6250              IN - OUT =      -1.2817E-02

 PERCENT DISCREPANCY =          -0.00     PERCENT DISCREPANCY =          -0.00






         TIME SUMMARY AT END OF TIME STEP   70 IN STRESS PERIOD    3
                    SECONDS     MINUTES      HOURS       DAYS        YEARS
                    -----------------------------------------------------------
   TIME STEP LENGTH  86400.      1440.0      24.000      1.0000     2.73785E-03
 STRESS PERIOD TIME 6.04800E+06 1.00800E+05  1680.0      70.000     0.19165    
         TOTAL TIME 1.47744E+07 2.46240E+05  4104.0      171.00     0.46817    
1
 
 SOLVING FOR HEAD 

 OUTPUT CONTROL FOR STRESS PERIOD    3   TIME STEP   71
    SAVE HEAD FOR ALL LAYERS
    SAVE DRAWDOWN FOR ALL LAYERS
    SAVE BUDGET
    PRINT HEAD FOR ALL LAYERS
    PRINT BUDGET
 UBDSV1 SAVING "         STORAGE" ON UNIT  53 AT TIME STEP 71, STRESS PERIOD   3
 UBDSV2 SAVING "   CONSTANT HEAD" ON UNIT  53 AT TIME STEP 71, STRESS PERIOD   3
 UBDSV1 SAVING "FLOW RIGHT FACE " ON UNIT  53 AT TIME STEP 71, STRESS PERIOD   3
 UBDSV1 SAVING "FLOW FRONT FACE " ON UNIT  53 AT TIME STEP 71, STRESS PERIOD   3
 UBDSV1 SAVING "FLOW LOWER FACE " ON UNIT  53 AT TIME STEP 71, STRESS PERIOD   3
1
              HEAD IN LAYER   1 AT END OF TIME STEP  71 IN STRESS PERIOD    3
  ---------------------------------------------------------------------------

            1           2           3           4           5           6           7           8           9          10
 ........................................................................................................................
   1    9.999       9.531       8.995       8.337       7.522       6.523       5.285       3.770       1.992      2.8446E-03
   2    9.999       9.503       8.930       8.226       7.381       6.409       5.214       3.734       1.977      2.8213E-03
   3    9.999       9.447       8.793       7.971       7.014       6.145       5.066       3.662       1.949      2.7784E-03
   4    9.998       9.376       8.598       7.523       6.157       5.681       4.855       3.574       1.917      2.7297E-03
   5    9.998       9.334       8.447       6.977       3.314       5.107       4.691       3.521       1.901      2.7043E-03
   6    9.998       9.377       8.600       7.526       6.160       5.683       4.857       3.575       1.918      2.7305E-03
   7    9.999       9.450       8.798       7.978       7.023       6.153       5.072       3.666       1.951      2.7811E-03
   8    9.999       9.509       8.943       8.245       7.402       6.429       5.228       3.743       1.981      2.8279E-03
   9    9.999       9.547       9.026       8.382       7.574       6.569       5.318       3.791       2.001      2.8590E-03
  10    9.999       9.563       9.062       8.438       7.640       6.627       5.357       3.813       2.010      2.8737E-03
1
              HEAD IN LAYER   2 AT END OF TIME STEP  71 IN STRESS PERIOD    3
  ---------------------------------------------------------------------------

            1           2           3           4           5           6           7           8           9          10
 ........................................................................................................................
   1    9.999       9.525       8.983       8.321       7.503       6.503       5.266       3.755       1.981      5.4578E-03
   2    9.999       9.496       8.917       8.209       7.360       6.388       5.194       3.718       1.966      5.4156E-03
   3    9.999       9.440       8.779       7.952       6.992       6.122       5.045       3.646       1.938      5.3379E-03
   4    9.998       9.369       8.583       7.502       6.136       5.657       4.834       3.557       1.906      5.2495E-03
   5    9.998       9.325       8.431       6.956       3.744       5.088       4.669       3.504       1.890      5.2039E-03
   6    9.998       9.370       8.585       7.504       6.139       5.660       4.836       3.558       1.907      5.2512E-03
   7    9.999       9.442       8.785       7.959       7.001       6.130       5.051       3.650       1.940      5.3429E-03
   8    9.999       9.503       8.931       8.229       7.382       6.408       5.209       3.727       1.971      5.4277E-03
   9    9.999       9.541       9.016       8.367       7.556       6.551       5.301       3.776       1.991      5.4843E-03
  10    9.999       9.558       9.052       8.424       7.624       6.609       5.340       3.798       2.001      5.5111E-03
1
              HEAD IN LAYER   3 AT END OF TIME STEP  71 IN STRESS PERIOD    3
  ---------------------------------------------------------------------------

            1           2           3           4           5           6           7           8           9          10
 ........................................................................................................................
   1    9.999       9.521       8.976       8.309       7.489       6.488       5.251       3.742       1.972      5.8509E-03
   2    9.999       9.492       8.909       8.197       7.345       6.372       5.179       3.705       1.957      5.8053E-03
   3    9.999       9.435       8.770       7.938       6.976       6.105       5.029       3.632       1.929      5.7213E-03
   4    9.998       9.363       8.572       7.487       6.126       5.639       4.816       3.543       1.896      5.6260E-03
   5    9.998       9.320       8.420       6.947       4.087       5.079       4.652       3.490       1.880      5.5770E-03
   6    9.998       9.364       8.574       7.489       6.129       5.642       4.818       3.544       1.897      5.6279E-03
   7    9.999       9.438       8.775       7.946       6.985       6.113       5.035       3.636       1.930      5.7268E-03
   8    9.999       9.499       8.923       8.217       7.368       6.393       5.195       3.714       1.961      5.8186E-03
   9    9.999       9.537       9.009       8.357       7.543       6.537       5.287       3.764       1.982      5.8801E-03
  10    9.999       9.555       9.046       8.414       7.612       6.596       5.327       3.787       1.992      5.9092E-03
1
              HEAD IN LAYER   4 AT END OF TIME STEP  71 IN STRESS PERIOD    3
  ---------------------------------------------------------------------------

            1           2           3           4           5           6           7           8           9          10
 ........................................................................................................................
   1    9.999       9.519       8.972       8.304       7.482       6.481       5.244       3.736       1.968      5.8814E-03
   2    9.999       9.490       8.904       8.191       7.338       6.365       5.171       3.698       1.952      5.8353E-03
   3    9.999       9.432       8.765       7.931       6.967       6.097       5.021       3.625       1.924      5.7502E-03
   4    9.998       9.360       8.567       7.479       6.123       5.630       4.808       3.535       1.891      5.6539E-03
   5    9.998       9.317       8.414       6.944       4.251       5.076       4.644       3.482       1.875      5.6045E-03
   6    9.998       9.361       8.569       7.482       6.126       5.633       4.810       3.537       1.892      5.6559E-03
   7    9.999       9.435       8.771       7.939       6.977       6.105       5.027       3.629       1.926      5.7559E-03
   8    9.999       9.497       8.919       8.211       7.361       6.385       5.187       3.708       1.957      5.8488E-03
   9    9.999       9.535       9.005       8.352       7.537       6.530       5.280       3.758       1.978      5.9112E-03
  10    9.999       9.553       9.042       8.409       7.606       6.589       5.320       3.781       1.988      5.9408E-03

 HEAD WILL BE SAVED ON UNIT   51 AT END OF TIME STEP   71, STRESS PERIOD    3

 DRAWDOWN WILL BE SAVED ON UNIT   52 AT END OF TIME STEP   71, STRESS PERIOD    3
1
  VOLUMETRIC BUDGET FOR ENTIRE MODEL AT END OF TIME STEP   71, STRESS PERIOD   3
  ------------------------------------------------------------------------------

     CUMULATIVE VOLUMES      L**3       RATES FOR THIS TIME STEP      L**3/T
     ------------------                 ------------------------

           IN:                                      IN:
           ---                                      ---
             STORAGE =      419780.6875               STORAGE =        1160.9496
       CONSTANT HEAD =           0.0000         CONSTANT HEAD =           0.0000
               WELLS =           0.0000                 WELLS =           0.0000
     HEAD DEP BOUNDS =       16645.4043       HEAD DEP BOUNDS =         324.0975

            TOTAL IN =      436426.0938              TOTAL IN =        1485.0471

          OUT:                                     OUT:
          ----                                     ----
             STORAGE =           0.0000               STORAGE =           0.0000
       CONSTANT HEAD =           0.0000         CONSTANT HEAD =           0.0000
               WELLS =       35500.0000                 WELLS =         500.0000
     HEAD DEP BOUNDS =      400927.7500       HEAD DEP BOUNDS =         985.0667

           TOTAL OUT =      436427.7500             TOTAL OUT =        1485.0667

            IN - OUT =          -1.6562              IN - OUT =      -1.9531E-02

 PERCENT DISCREPANCY =          -0.00     PERCENT DISCREPANCY =          -0.00






         TIME SUMMARY AT END OF TIME STEP   71 IN STRESS PERIOD    3
                    SECONDS     MINUTES      HOURS       DAYS        YEARS
                    -----------------------------------------------------------
   TIME STEP LENGTH  86400.      1440.0      24.000      1.0000     2.73785E-03
 STRESS PERIOD TIME 6.13440E+06 1.02240E+05  1704.0      71.000     0.19439    
         TOTAL TIME 1.48608E+07 2.47680E+05  4128.0      172.00     0.47091    
1
 
 SOLVING FOR HEAD 

 OUTPUT CONTROL FOR STRESS PERIOD    3   TIME STEP   72
    SAVE HEAD FOR ALL LAYERS
    SAVE DRAWDOWN FOR ALL LAYERS
    SAVE BUDGET
    PRINT HEAD FOR ALL LAYERS
    PRINT BUDGET
 UBDSV1 SAVING "         STORAGE" ON UNIT  53 AT TIME STEP 72, STRESS PERIOD   3
 UBDSV2 SAVING "   CONSTANT HEAD" ON UNIT  53 AT TIME STEP 72, STRESS PERIOD   3
 UBDSV1 SAVING "FLOW RIGHT FACE " ON UNIT  53 AT TIME STEP 72, STRESS PERIOD   3
 UBDSV1 SAVING "FLOW FRONT FACE " ON UNIT  53 AT TIME STEP 72, STRESS PERIOD   3
 UBDSV1 SAVING "FLOW LOWER FACE " ON UNIT  53 AT TIME STEP 72, STRESS PERIOD   3
1
              HEAD IN LAYER   1 AT END OF TIME STEP  72 IN STRESS PERIOD    3
  ---------------------------------------------------------------------------

            1           2           3           4           5           6           7           8           9          10
 ........................................................................................................................
   1    9.999       9.526       8.985       8.323       7.505       6.506       5.268       3.758       1.985      2.8337E-03
   2    9.999       9.497       8.919       8.211       7.362       6.391       5.197       3.721       1.969      2.8100E-03
   3    9.999       9.441       8.781       7.954       6.994       6.124       5.047       3.648       1.941      2.7664E-03
   4    9.998       9.370       8.585       7.505       6.135       5.658       4.835       3.559       1.909      2.7169E-03
   5    9.998       9.327       8.434       6.958       3.290       5.084       4.670       3.506       1.892      2.6916E-03
   6    9.998       9.371       8.587       7.507       6.138       5.661       4.837       3.560       1.910      2.7179E-03
   7    9.999       9.443       8.787       7.962       7.003       6.132       5.053       3.652       1.943      2.7692E-03
   8    9.999       9.504       8.933       8.231       7.384       6.411       5.212       3.730       1.974      2.8168E-03
   9    9.999       9.542       9.017       8.369       7.558       6.553       5.303       3.779       1.994      2.8487E-03
  10    9.999       9.559       9.054       8.426       7.625       6.611       5.343       3.801       2.004      2.8636E-03
1
              HEAD IN LAYER   2 AT END OF TIME STEP  72 IN STRESS PERIOD    3
  ---------------------------------------------------------------------------

            1           2           3           4           5           6           7           8           9          10
 ........................................................................................................................
   1    9.999       9.520       8.973       8.307       7.486       6.486       5.250       3.743       1.974      5.4383E-03
   2    9.999       9.491       8.906       8.194       7.342       6.370       5.177       3.705       1.959      5.3954E-03
   3    9.999       9.433       8.767       7.935       6.972       6.102       5.027       3.632       1.930      5.3164E-03
   4    9.998       9.362       8.570       7.483       6.114       5.635       4.814       3.542       1.898      5.2269E-03
   5    9.998       9.318       8.418       6.937       3.720       5.065       4.649       3.489       1.881      5.1808E-03
   6    9.998       9.363       8.572       7.486       6.117       5.638       4.816       3.544       1.899      5.2287E-03
   7    9.999       9.436       8.773       7.943       6.981       6.110       5.033       3.636       1.932      5.3216E-03
   8    9.999       9.498       8.921       8.214       7.365       6.390       5.193       3.715       1.963      5.4080E-03
   9    9.999       9.536       9.006       8.354       7.540       6.534       5.285       3.764       1.984      5.4658E-03
  10    9.999       9.554       9.044       8.412       7.609       6.593       5.326       3.787       1.994      5.4933E-03
1
              HEAD IN LAYER   3 AT END OF TIME STEP  72 IN STRESS PERIOD    3
  ---------------------------------------------------------------------------

            1           2           3           4           5           6           7           8           9          10
 ........................................................................................................................
   1    9.999       9.516       8.965       8.295       7.472       6.471       5.235       3.730       1.965      5.8302E-03
   2    9.999       9.486       8.898       8.182       7.327       6.354       5.162       3.692       1.950      5.7838E-03
   3    9.999       9.428       8.758       7.921       6.956       6.085       5.011       3.618       1.921      5.6985E-03
   4    9.998       9.356       8.560       7.468       6.105       5.617       4.797       3.528       1.888      5.6020E-03
   5    9.998       9.313       8.407       6.928       4.064       5.056       4.632       3.475       1.872      5.5525E-03
   6    9.998       9.358       8.562       7.471       6.108       5.620       4.799       3.529       1.889      5.6040E-03
   7    9.999       9.432       8.764       7.929       6.965       6.093       5.017       3.622       1.923      5.7043E-03
   8    9.999       9.494       8.913       8.203       7.351       6.375       5.178       3.702       1.954      5.7976E-03
   9    9.999       9.533       8.999       8.344       7.528       6.520       5.272       3.752       1.976      5.8604E-03
  10    9.999       9.550       9.037       8.402       7.597       6.580       5.312       3.775       1.986      5.8903E-03
1
              HEAD IN LAYER   4 AT END OF TIME STEP  72 IN STRESS PERIOD    3
  ---------------------------------------------------------------------------

            1           2           3           4           5           6           7           8           9          10
 ........................................................................................................................
   1    9.999       9.514       8.961       8.290       7.465       6.463       5.228       3.723       1.961      5.8606E-03
   2    9.999       9.484       8.894       8.176       7.320       6.346       5.155       3.685       1.945      5.8137E-03
   3    9.999       9.426       8.753       7.914       6.948       6.076       5.002       3.611       1.916      5.7273E-03
   4    9.998       9.354       8.554       7.461       6.102       5.608       4.788       3.521       1.883      5.6299E-03
   5    9.998       9.310       8.401       6.925       4.228       5.054       4.624       3.467       1.867      5.5799E-03
   6    9.998       9.355       8.556       7.464       6.105       5.611       4.791       3.522       1.884      5.6320E-03
   7    9.999       9.429       8.759       7.923       6.957       6.085       5.009       3.615       1.918      5.7333E-03
   8    9.999       9.492       8.909       8.197       7.344       6.367       5.171       3.695       1.950      5.8278E-03
   9    9.999       9.531       8.996       8.339       7.521       6.513       5.265       3.746       1.971      5.8915E-03
  10    9.999       9.549       9.034       8.397       7.591       6.573       5.306       3.769       1.981      5.9218E-03

 HEAD WILL BE SAVED ON UNIT   51 AT END OF TIME STEP   72, STRESS PERIOD    3

 DRAWDOWN WILL BE SAVED ON UNIT   52 AT END OF TIME STEP   72, STRESS PERIOD    3
1
  VOLUMETRIC BUDGET FOR ENTIRE MODEL AT END OF TIME STEP   72, STRESS PERIOD   3
  ------------------------------------------------------------------------------

     CUMULATIVE VOLUMES      L**3       RATES FOR THIS TIME STEP      L**3/T
     ------------------                 ------------------------

           IN:                                      IN:
           ---                                      ---
             STORAGE =      420934.4062               STORAGE =        1153.7094
       CONSTANT HEAD =           0.0000         CONSTANT HEAD =           0.0000
               WELLS =           0.0000                 WELLS =           0.0000
     HEAD DEP BOUNDS =       16972.9492       HEAD DEP BOUNDS =         327.5458

            TOTAL IN =      437907.3438              TOTAL IN =        1481.2551

          OUT:                                     OUT:
          ----                                     ----
             STORAGE =           0.0000               STORAGE =           0.0000
       CONSTANT HEAD =           0.0000         CONSTANT HEAD =           0.0000
               WELLS =       36000.0000                 WELLS =         500.0000
     HEAD DEP BOUNDS =      401909.0000       HEAD DEP BOUNDS =         981.2558

           TOTAL OUT =      437909.0000             TOTAL OUT =        1481.2559

            IN - OUT =          -1.6562              IN - OUT =      -7.3242E-04

 PERCENT DISCREPANCY =          -0.00     PERCENT DISCREPANCY =          -0.00






         TIME SUMMARY AT END OF TIME STEP   72 IN STRESS PERIOD    3
                    SECONDS     MINUTES      HOURS       DAYS        YEARS
                    -----------------------------------------------------------
   TIME STEP LENGTH  86400.      1440.0      24.000      1.0000     2.73785E-03
 STRESS PERIOD TIME 6.22080E+06 1.03680E+05  1728.0      72.000     0.19713    
         TOTAL TIME 1.49472E+07 2.49120E+05  4152.0      173.00     0.47365    
1
 
 SOLVING FOR HEAD 

 OUTPUT CONTROL FOR STRESS PERIOD    3   TIME STEP   73
    SAVE HEAD FOR ALL LAYERS
    SAVE DRAWDOWN FOR ALL LAYERS
    SAVE BUDGET
    PRINT HEAD FOR ALL LAYERS
    PRINT BUDGET
 UBDSV1 SAVING "         STORAGE" ON UNIT  53 AT TIME STEP 73, STRESS PERIOD   3
 UBDSV2 SAVING "   CONSTANT HEAD" ON UNIT  53 AT TIME STEP 73, STRESS PERIOD   3
 UBDSV1 SAVING "FLOW RIGHT FACE " ON UNIT  53 AT TIME STEP 73, STRESS PERIOD   3
 UBDSV1 SAVING "FLOW FRONT FACE " ON UNIT  53 AT TIME STEP 73, STRESS PERIOD   3
 UBDSV1 SAVING "FLOW LOWER FACE " ON UNIT  53 AT TIME STEP 73, STRESS PERIOD   3
1
              HEAD IN LAYER   1 AT END OF TIME STEP  73 IN STRESS PERIOD    3
  ---------------------------------------------------------------------------

            1           2           3           4           5           6           7           8           9          10
 ........................................................................................................................
   1    9.999       9.521       8.975       8.308       7.488       6.488       5.252       3.745       1.977      2.8227E-03
   2    9.999       9.491       8.908       8.196       7.344       6.372       5.180       3.707       1.962      2.7986E-03
   3    9.999       9.434       8.769       7.937       6.975       6.104       5.029       3.634       1.933      2.7545E-03
   4    9.998       9.363       8.572       7.486       6.113       5.636       4.815       3.544       1.901      2.7043E-03
   5    9.998       9.320       8.420       6.938       3.266       5.061       4.650       3.491       1.884      2.6786E-03
   6    9.998       9.364       8.574       7.489       6.116       5.639       4.818       3.546       1.901      2.7054E-03
   7    9.999       9.437       8.775       7.945       6.984       6.112       5.035       3.638       1.935      2.7574E-03
   8    9.999       9.499       8.922       8.216       7.367       6.392       5.195       3.717       1.966      2.8059E-03
   9    9.999       9.537       9.008       8.356       7.542       6.536       5.288       3.767       1.987      2.8383E-03
  10    9.999       9.554       9.045       8.413       7.611       6.596       5.328       3.790       1.997      2.8538E-03
1
              HEAD IN LAYER   2 AT END OF TIME STEP  73 IN STRESS PERIOD    3
  ---------------------------------------------------------------------------

            1           2           3           4           5           6           7           8           9          10
 ........................................................................................................................
   1    9.999       9.515       8.963       8.292       7.469       6.468       5.234       3.730       1.967      5.4189E-03
   2    9.999       9.485       8.896       8.179       7.324       6.351       5.161       3.692       1.952      5.3752E-03
   3    9.999       9.427       8.755       7.918       6.952       6.082       5.009       3.618       1.923      5.2951E-03
   4    9.998       9.355       8.557       7.465       6.093       5.613       4.794       3.527       1.890      5.2044E-03
   5    9.998       9.312       8.404       6.918       3.696       5.042       4.629       3.474       1.873      5.1579E-03
   6    9.998       9.356       8.559       7.468       6.096       5.616       4.797       3.529       1.891      5.2063E-03
   7    9.999       9.430       8.761       7.926       6.962       6.090       5.015       3.622       1.925      5.3006E-03
   8    9.999       9.493       8.911       8.200       7.348       6.372       5.177       3.702       1.956      5.3884E-03
   9    9.999       9.532       8.997       8.341       7.525       6.518       5.270       3.752       1.978      5.4474E-03
  10    9.999       9.549       9.035       8.399       7.594       6.578       5.311       3.776       1.988      5.4756E-03
1
              HEAD IN LAYER   3 AT END OF TIME STEP  73 IN STRESS PERIOD    3
  ---------------------------------------------------------------------------

            1           2           3           4           5           6           7           8           9          10
 ........................................................................................................................
   1    9.999       9.510       8.955       8.281       7.455       6.453       5.219       3.717       1.958      5.8095E-03
   2    9.999       9.481       8.887       8.167       7.310       6.335       5.145       3.679       1.942      5.7623E-03
   3    9.999       9.422       8.746       7.904       6.936       6.065       4.992       3.604       1.913      5.6758E-03
   4    9.998       9.350       8.547       7.450       6.083       5.595       4.777       3.513       1.880      5.5781E-03
   5    9.998       9.306       8.393       6.909       4.040       5.034       4.612       3.460       1.863      5.5282E-03
   6    9.998       9.351       8.549       7.453       6.086       5.598       4.780       3.515       1.881      5.5803E-03
   7    9.999       9.426       8.752       7.913       6.946       6.073       4.999       3.609       1.915      5.6819E-03
   8    9.999       9.488       8.902       8.188       7.334       6.357       5.162       3.689       1.947      5.7768E-03
   9    9.999       9.528       8.990       8.331       7.512       6.504       5.257       3.740       1.969      5.8409E-03
  10    9.999       9.546       9.028       8.390       7.582       6.565       5.298       3.764       1.979      5.8714E-03
1
              HEAD IN LAYER   4 AT END OF TIME STEP  73 IN STRESS PERIOD    3
  ---------------------------------------------------------------------------

            1           2           3           4           5           6           7           8           9          10
 ........................................................................................................................
   1    9.999       9.508       8.951       8.275       7.449       6.446       5.212       3.711       1.954      5.8399E-03
   2    9.999       9.478       8.883       8.161       7.302       6.327       5.138       3.672       1.938      5.7922E-03
   3    9.999       9.420       8.741       7.898       6.928       6.056       4.984       3.597       1.909      5.7046E-03
   4    9.998       9.347       8.541       7.443       6.080       5.586       4.769       3.506       1.875      5.6059E-03
   5    9.998       9.303       8.388       6.906       4.205       5.031       4.604       3.452       1.858      5.5556E-03
   6    9.998       9.348       8.544       7.446       6.083       5.590       4.771       3.508       1.876      5.6081E-03
   7    9.999       9.423       8.747       7.906       6.938       6.065       4.991       3.602       1.911      5.7108E-03
   8    9.999       9.486       8.898       8.182       7.327       6.350       5.154       3.683       1.943      5.8069E-03
   9    9.999       9.526       8.986       8.326       7.506       6.497       5.250       3.734       1.965      5.8719E-03
  10    9.999       9.544       9.025       8.385       7.576       6.558       5.291       3.758       1.975      5.9029E-03

 HEAD WILL BE SAVED ON UNIT   51 AT END OF TIME STEP   73, STRESS PERIOD    3

 DRAWDOWN WILL BE SAVED ON UNIT   52 AT END OF TIME STEP   73, STRESS PERIOD    3
1
  VOLUMETRIC BUDGET FOR ENTIRE MODEL AT END OF TIME STEP   73, STRESS PERIOD   3
  ------------------------------------------------------------------------------

     CUMULATIVE VOLUMES      L**3       RATES FOR THIS TIME STEP      L**3/T
     ------------------                 ------------------------

           IN:                                      IN:
           ---                                      ---
             STORAGE =      422080.9062               STORAGE =        1146.4900
       CONSTANT HEAD =           0.0000         CONSTANT HEAD =           0.0000
               WELLS =           0.0000                 WELLS =           0.0000
     HEAD DEP BOUNDS =       17303.9004       HEAD DEP BOUNDS =         330.9516

            TOTAL IN =      439384.8125              TOTAL IN =        1477.4417

          OUT:                                     OUT:
          ----                                     ----
             STORAGE =           0.0000               STORAGE =           0.0000
       CONSTANT HEAD =           0.0000         CONSTANT HEAD =           0.0000
               WELLS =       36500.0000                 WELLS =         500.0000
     HEAD DEP BOUNDS =      402886.4688       HEAD DEP BOUNDS =         977.4661

           TOTAL OUT =      439386.4688             TOTAL OUT =        1477.4661

            IN - OUT =          -1.6562              IN - OUT =      -2.4414E-02

 PERCENT DISCREPANCY =          -0.00     PERCENT DISCREPANCY =          -0.00






         TIME SUMMARY AT END OF TIME STEP   73 IN STRESS PERIOD    3
                    SECONDS     MINUTES      HOURS       DAYS        YEARS
                    -----------------------------------------------------------
   TIME STEP LENGTH  86400.      1440.0      24.000      1.0000     2.73785E-03
 STRESS PERIOD TIME 6.30720E+06 1.05120E+05  1752.0      73.000     0.19986    
         TOTAL TIME 1.50336E+07 2.50560E+05  4176.0      174.00     0.47639    
1
 
 SOLVING FOR HEAD 

 OUTPUT CONTROL FOR STRESS PERIOD    3   TIME STEP   74
    SAVE HEAD FOR ALL LAYERS
    SAVE DRAWDOWN FOR ALL LAYERS
    SAVE BUDGET
    PRINT HEAD FOR ALL LAYERS
    PRINT BUDGET
 UBDSV1 SAVING "         STORAGE" ON UNIT  53 AT TIME STEP 74, STRESS PERIOD   3
 UBDSV2 SAVING "   CONSTANT HEAD" ON UNIT  53 AT TIME STEP 74, STRESS PERIOD   3
 UBDSV1 SAVING "FLOW RIGHT FACE " ON UNIT  53 AT TIME STEP 74, STRESS PERIOD   3
 UBDSV1 SAVING "FLOW FRONT FACE " ON UNIT  53 AT TIME STEP 74, STRESS PERIOD   3
 UBDSV1 SAVING "FLOW LOWER FACE " ON UNIT  53 AT TIME STEP 74, STRESS PERIOD   3
1
              HEAD IN LAYER   1 AT END OF TIME STEP  74 IN STRESS PERIOD    3
  ---------------------------------------------------------------------------

            1           2           3           4           5           6           7           8           9          10
 ........................................................................................................................
   1    9.999       9.515       8.964       8.294       7.471       6.470       5.236       3.733       1.970      2.8120E-03
   2    9.999       9.486       8.897       8.181       7.326       6.353       5.163       3.694       1.955      2.7875E-03
   3    9.999       9.428       8.757       7.920       6.955       6.084       5.011       3.620       1.926      2.7425E-03
   4    9.998       9.356       8.559       7.468       6.092       5.614       4.796       3.530       1.893      2.6920E-03
   5    9.998       9.313       8.407       6.920       3.242       5.038       4.630       3.476       1.876      2.6659E-03
   6    9.998       9.358       8.562       7.471       6.095       5.617       4.798       3.531       1.893      2.6931E-03
   7    9.999       9.431       8.763       7.929       6.964       6.092       5.017       3.625       1.928      2.7456E-03
   8    9.999       9.493       8.912       8.202       7.350       6.375       5.179       3.704       1.959      2.7948E-03
   9    9.999       9.532       8.998       8.343       7.527       6.520       5.273       3.755       1.981      2.8279E-03
  10    9.999       9.550       9.036       8.401       7.596       6.580       5.314       3.778       1.991      2.8437E-03
1
              HEAD IN LAYER   2 AT END OF TIME STEP  74 IN STRESS PERIOD    3
  ---------------------------------------------------------------------------

            1           2           3           4           5           6           7           8           9          10
 ........................................................................................................................
   1    9.999       9.509       8.953       8.278       7.452       6.450       5.218       3.718       1.960      5.3996E-03
   2    9.999       9.479       8.885       8.164       7.306       6.332       5.144       3.679       1.944      5.3552E-03
   3    9.999       9.421       8.743       7.901       6.933       6.062       4.990       3.604       1.915      5.2738E-03
   4    9.998       9.349       8.544       7.447       6.071       5.591       4.775       3.513       1.882      5.1821E-03
   5    9.998       9.305       8.391       6.899       3.673       5.020       4.609       3.459       1.865      5.1352E-03
   6    9.998       9.350       8.547       7.450       6.075       5.594       4.777       3.514       1.883      5.1842E-03
   7    9.999       9.424       8.750       7.910       6.943       6.070       4.997       3.609       1.917      5.2796E-03
   8    9.999       9.487       8.900       8.185       7.331       6.355       5.160       3.689       1.949      5.3689E-03
   9    9.999       9.527       8.988       8.328       7.509       6.502       5.255       3.741       1.971      5.4291E-03
  10    9.999       9.545       9.026       8.387       7.580       6.563       5.297       3.764       1.981      5.4579E-03
1
              HEAD IN LAYER   3 AT END OF TIME STEP  74 IN STRESS PERIOD    3
  ---------------------------------------------------------------------------

            1           2           3           4           5           6           7           8           9          10
 ........................................................................................................................
   1    9.999       9.505       8.945       8.267       7.439       6.436       5.203       3.705       1.951      5.7890E-03
   2    9.999       9.475       8.876       8.152       7.292       6.317       5.128       3.666       1.935      5.7411E-03
   3    9.999       9.416       8.734       7.888       6.917       6.045       4.974       3.591       1.906      5.6532E-03
   4    9.998       9.343       8.534       7.432       6.062       5.574       4.758       3.499       1.872      5.5544E-03
   5    9.998       9.299       8.380       6.890       4.017       5.011       4.592       3.445       1.855      5.5040E-03
   6    9.998       9.344       8.536       7.435       6.065       5.577       4.761       3.500       1.873      5.5567E-03
   7    9.999       9.420       8.741       7.897       6.927       6.054       4.981       3.595       1.908      5.6596E-03
   8    9.999       9.483       8.892       8.174       7.317       6.339       5.146       3.677       1.940      5.7561E-03
   9    9.999       9.523       8.981       8.318       7.497       6.488       5.242       3.729       1.962      5.8214E-03
  10    9.999       9.541       9.020       8.378       7.568       6.549       5.284       3.753       1.973      5.8527E-03
1
              HEAD IN LAYER   4 AT END OF TIME STEP  74 IN STRESS PERIOD    3
  ---------------------------------------------------------------------------

            1           2           3           4           5           6           7           8           9          10
 ........................................................................................................................
   1    9.999       9.503       8.941       8.261       7.432       6.428       5.196       3.699       1.947      5.8193E-03
   2    9.999       9.473       8.872       8.146       7.284       6.309       5.121       3.659       1.931      5.7708E-03
   3    9.999       9.414       8.729       7.881       6.909       6.036       4.966       3.584       1.901      5.6820E-03
   4    9.998       9.341       8.529       7.425       6.059       5.565       4.750       3.492       1.867      5.5822E-03
   5    9.998       9.296       8.375       6.887       4.182       5.009       4.584       3.438       1.850      5.5314E-03
   6    9.998       9.342       8.531       7.428       6.062       5.568       4.752       3.493       1.868      5.5845E-03
   7    9.999       9.417       8.736       7.890       6.919       6.045       4.973       3.588       1.903      5.6885E-03
   8    9.999       9.481       8.888       8.168       7.310       6.332       5.138       3.670       1.936      5.7862E-03
   9    9.999       9.521       8.977       8.313       7.490       6.481       5.235       3.723       1.958      5.8524E-03
  10    9.999       9.540       9.016       8.373       7.562       6.543       5.277       3.747       1.969      5.8841E-03

 HEAD WILL BE SAVED ON UNIT   51 AT END OF TIME STEP   74, STRESS PERIOD    3

 DRAWDOWN WILL BE SAVED ON UNIT   52 AT END OF TIME STEP   74, STRESS PERIOD    3
1
  VOLUMETRIC BUDGET FOR ENTIRE MODEL AT END OF TIME STEP   74, STRESS PERIOD   3
  ------------------------------------------------------------------------------

     CUMULATIVE VOLUMES      L**3       RATES FOR THIS TIME STEP      L**3/T
     ------------------                 ------------------------

           IN:                                      IN:
           ---                                      ---
             STORAGE =      423220.2500               STORAGE =        1139.3319
       CONSTANT HEAD =           0.0000         CONSTANT HEAD =           0.0000
               WELLS =           0.0000                 WELLS =           0.0000
     HEAD DEP BOUNDS =       17638.2676       HEAD DEP BOUNDS =         334.3670

            TOTAL IN =      440858.5312              TOTAL IN =        1473.6990

          OUT:                                     OUT:
          ----                                     ----
             STORAGE =           0.0000               STORAGE =           0.0000
       CONSTANT HEAD =           0.0000         CONSTANT HEAD =           0.0000
               WELLS =       37000.0000                 WELLS =         500.0000
     HEAD DEP BOUNDS =      403860.1562       HEAD DEP BOUNDS =         973.7007

           TOTAL OUT =      440860.1562             TOTAL OUT =        1473.7007

            IN - OUT =          -1.6250              IN - OUT =      -1.7090E-03

 PERCENT DISCREPANCY =          -0.00     PERCENT DISCREPANCY =          -0.00






         TIME SUMMARY AT END OF TIME STEP   74 IN STRESS PERIOD    3
                    SECONDS     MINUTES      HOURS       DAYS        YEARS
                    -----------------------------------------------------------
   TIME STEP LENGTH  86400.      1440.0      24.000      1.0000     2.73785E-03
 STRESS PERIOD TIME 6.39360E+06 1.06560E+05  1776.0      74.000     0.20260    
         TOTAL TIME 1.51200E+07 2.52000E+05  4200.0      175.00     0.47912    
1
 
 SOLVING FOR HEAD 

 OUTPUT CONTROL FOR STRESS PERIOD    3   TIME STEP   75
    SAVE HEAD FOR ALL LAYERS
    SAVE DRAWDOWN FOR ALL LAYERS
    SAVE BUDGET
    PRINT HEAD FOR ALL LAYERS
    PRINT BUDGET
 UBDSV1 SAVING "         STORAGE" ON UNIT  53 AT TIME STEP 75, STRESS PERIOD   3
 UBDSV2 SAVING "   CONSTANT HEAD" ON UNIT  53 AT TIME STEP 75, STRESS PERIOD   3
 UBDSV1 SAVING "FLOW RIGHT FACE " ON UNIT  53 AT TIME STEP 75, STRESS PERIOD   3
 UBDSV1 SAVING "FLOW FRONT FACE " ON UNIT  53 AT TIME STEP 75, STRESS PERIOD   3
 UBDSV1 SAVING "FLOW LOWER FACE " ON UNIT  53 AT TIME STEP 75, STRESS PERIOD   3
1
              HEAD IN LAYER   1 AT END OF TIME STEP  75 IN STRESS PERIOD    3
  ---------------------------------------------------------------------------

            1           2           3           4           5           6           7           8           9          10
 ........................................................................................................................
   1    9.999       9.510       8.954       8.280       7.454       6.453       5.220       3.720       1.963      2.8012E-03
   2    9.999       9.480       8.886       8.166       7.308       6.335       5.146       3.681       1.947      2.7762E-03
   3    9.999       9.422       8.745       7.904       6.935       6.064       4.992       3.606       1.918      2.7308E-03
   4    9.998       9.350       8.547       7.450       6.070       5.592       4.776       3.515       1.885      2.6796E-03
   5    9.998       9.306       8.394       6.901       3.219       5.015       4.610       3.461       1.867      2.6532E-03
   6    9.998       9.351       8.549       7.453       6.074       5.595       4.779       3.516       1.885      2.6807E-03
   7    9.999       9.425       8.752       7.912       6.945       6.072       4.999       3.611       1.920      2.7340E-03
   8    9.999       9.488       8.902       8.187       7.333       6.357       5.163       3.692       1.952      2.7840E-03
   9    9.999       9.528       8.989       8.330       7.511       6.504       5.258       3.743       1.974      2.8178E-03
  10    9.999       9.546       9.028       8.389       7.582       6.565       5.299       3.767       1.985      2.8339E-03
1
              HEAD IN LAYER   2 AT END OF TIME STEP  75 IN STRESS PERIOD    3
  ---------------------------------------------------------------------------

            1           2           3           4           5           6           7           8           9          10
 ........................................................................................................................
   1    9.999       9.504       8.943       8.264       7.436       6.433       5.202       3.705       1.954      5.3804E-03
   2    9.999       9.474       8.874       8.149       7.289       6.314       5.127       3.666       1.937      5.3353E-03
   3    9.999       9.415       8.732       7.885       6.913       6.042       4.972       3.590       1.907      5.2528E-03
   4    9.998       9.342       8.532       7.429       6.050       5.570       4.756       3.498       1.874      5.1600E-03
   5    9.998       9.298       8.378       6.881       3.649       4.997       4.589       3.444       1.857      5.1126E-03
   6    9.998       9.343       8.534       7.432       6.054       5.573       4.758       3.500       1.875      5.1621E-03
   7    9.999       9.418       8.738       7.894       6.923       6.051       4.980       3.595       1.910      5.2588E-03
   8    9.999       9.482       8.890       8.171       7.314       6.337       5.144       3.677       1.942      5.3495E-03
   9    9.999       9.522       8.979       8.315       7.494       6.486       5.240       3.729       1.965      5.4110E-03
  10    9.999       9.540       9.018       8.375       7.565       6.547       5.283       3.753       1.975      5.4404E-03
1
              HEAD IN LAYER   3 AT END OF TIME STEP  75 IN STRESS PERIOD    3
  ---------------------------------------------------------------------------

            1           2           3           4           5           6           7           8           9          10
 ........................................................................................................................
   1    9.999       9.500       8.935       8.253       7.422       6.418       5.187       3.693       1.945      5.7686E-03
   2    9.999       9.469       8.866       8.137       7.274       6.298       5.112       3.653       1.928      5.7199E-03
   3    9.999       9.410       8.722       7.871       6.897       6.025       4.956       3.577       1.898      5.6308E-03
   4    9.998       9.337       8.521       7.415       6.041       5.552       4.739       3.484       1.864      5.5309E-03
   5    9.998       9.293       8.367       6.872       3.994       4.989       4.573       3.430       1.847      5.4801E-03
   6    9.998       9.338       8.524       7.418       6.044       5.555       4.742       3.486       1.865      5.5333E-03
   7    9.999       9.414       8.729       7.881       6.908       6.034       4.964       3.582       1.900      5.6375E-03
   8    9.999       9.478       8.882       8.159       7.300       6.322       5.129       3.664       1.933      5.7355E-03
   9    9.999       9.518       8.972       8.305       7.481       6.472       5.227       3.717       1.956      5.8021E-03
  10    9.999       9.537       9.011       8.365       7.553       6.534       5.270       3.742       1.967      5.8341E-03
1
              HEAD IN LAYER   4 AT END OF TIME STEP  75 IN STRESS PERIOD    3
  ---------------------------------------------------------------------------

            1           2           3           4           5           6           7           8           9          10
 ........................................................................................................................
   1    9.999       9.498       8.931       8.247       7.415       6.411       5.180       3.686       1.940      5.7989E-03
   2    9.999       9.467       8.861       8.131       7.267       6.291       5.104       3.646       1.924      5.7495E-03
   3    9.999       9.408       8.718       7.865       6.889       6.016       4.948       3.570       1.893      5.6595E-03
   4    9.998       9.334       8.516       7.407       6.038       5.544       4.731       3.477       1.860      5.5586E-03
   5    9.998       9.290       8.362       6.869       4.159       4.986       4.565       3.423       1.842      5.5074E-03
   6    9.998       9.335       8.519       7.411       6.041       5.547       4.733       3.479       1.860      5.5610E-03
   7    9.999       9.411       8.725       7.874       6.900       6.026       4.956       3.575       1.896      5.6663E-03
   8    9.999       9.476       8.878       8.154       7.293       6.314       5.122       3.658       1.929      5.7655E-03
   9    9.999       9.516       8.968       8.300       7.475       6.465       5.220       3.711       1.952      5.8330E-03
  10    9.999       9.535       9.008       8.361       7.547       6.528       5.263       3.736       1.962      5.8654E-03

 HEAD WILL BE SAVED ON UNIT   51 AT END OF TIME STEP   75, STRESS PERIOD    3

 DRAWDOWN WILL BE SAVED ON UNIT   52 AT END OF TIME STEP   75, STRESS PERIOD    3
1
  VOLUMETRIC BUDGET FOR ENTIRE MODEL AT END OF TIME STEP   75, STRESS PERIOD   3
  ------------------------------------------------------------------------------

     CUMULATIVE VOLUMES      L**3       RATES FOR THIS TIME STEP      L**3/T
     ------------------                 ------------------------

           IN:                                      IN:
           ---                                      ---
             STORAGE =      424352.4688               STORAGE =        1132.2090
       CONSTANT HEAD =           0.0000         CONSTANT HEAD =           0.0000
               WELLS =           0.0000                 WELLS =           0.0000
     HEAD DEP BOUNDS =       17976.0234       HEAD DEP BOUNDS =         337.7560

            TOTAL IN =      442328.5000              TOTAL IN =        1469.9650

          OUT:                                     OUT:
          ----                                     ----
             STORAGE =           0.0000               STORAGE =           0.0000
       CONSTANT HEAD =           0.0000         CONSTANT HEAD =           0.0000
               WELLS =       37500.0000                 WELLS =         500.0000
     HEAD DEP BOUNDS =      404830.1250       HEAD DEP BOUNDS =         969.9601

           TOTAL OUT =      442330.1250             TOTAL OUT =        1469.9602

            IN - OUT =          -1.6250              IN - OUT =       4.7607E-03

 PERCENT DISCREPANCY =          -0.00     PERCENT DISCREPANCY =           0.00






         TIME SUMMARY AT END OF TIME STEP   75 IN STRESS PERIOD    3
                    SECONDS     MINUTES      HOURS       DAYS        YEARS
                    -----------------------------------------------------------
   TIME STEP LENGTH  86400.      1440.0      24.000      1.0000     2.73785E-03
 STRESS PERIOD TIME 6.48000E+06 1.08000E+05  1800.0      75.000     0.20534    
         TOTAL TIME 1.52064E+07 2.53440E+05  4224.0      176.00     0.48186    
1
 
 SOLVING FOR HEAD 

 OUTPUT CONTROL FOR STRESS PERIOD    3   TIME STEP   76
    SAVE HEAD FOR ALL LAYERS
    SAVE DRAWDOWN FOR ALL LAYERS
    SAVE BUDGET
    PRINT HEAD FOR ALL LAYERS
    PRINT BUDGET
 UBDSV1 SAVING "         STORAGE" ON UNIT  53 AT TIME STEP 76, STRESS PERIOD   3
 UBDSV2 SAVING "   CONSTANT HEAD" ON UNIT  53 AT TIME STEP 76, STRESS PERIOD   3
 UBDSV1 SAVING "FLOW RIGHT FACE " ON UNIT  53 AT TIME STEP 76, STRESS PERIOD   3
 UBDSV1 SAVING "FLOW FRONT FACE " ON UNIT  53 AT TIME STEP 76, STRESS PERIOD   3
 UBDSV1 SAVING "FLOW LOWER FACE " ON UNIT  53 AT TIME STEP 76, STRESS PERIOD   3
1
              HEAD IN LAYER   1 AT END OF TIME STEP  76 IN STRESS PERIOD    3
  ---------------------------------------------------------------------------

            1           2           3           4           5           6           7           8           9          10
 ........................................................................................................................
   1    9.999       9.505       8.944       8.266       7.438       6.435       5.204       3.708       1.957      2.7904E-03
   2    9.999       9.475       8.876       8.151       7.291       6.316       5.129       3.668       1.940      2.7652E-03
   3    9.999       9.416       8.733       7.887       6.916       6.043       4.974       3.593       1.910      2.7189E-03
   4    9.998       9.343       8.534       7.432       6.049       5.571       4.757       3.500       1.877      2.6672E-03
   5    9.998       9.299       8.381       6.882       3.196       4.993       4.590       3.446       1.859      2.6408E-03
   6    9.998       9.345       8.536       7.435       6.052       5.574       4.760       3.502       1.877      2.6684E-03
   7    9.999       9.420       8.740       7.896       6.926       6.053       4.981       3.597       1.912      2.7224E-03
   8    9.999       9.483       8.892       8.173       7.316       6.339       5.146       3.679       1.945      2.7732E-03
   9    9.999       9.523       8.980       8.317       7.496       6.488       5.243       3.732       1.968      2.8077E-03
  10    9.999       9.541       9.019       8.377       7.567       6.549       5.285       3.756       1.978      2.8241E-03
1
              HEAD IN LAYER   2 AT END OF TIME STEP  76 IN STRESS PERIOD    3
  ---------------------------------------------------------------------------

            1           2           3           4           5           6           7           8           9          10
 ........................................................................................................................
   1    9.999       9.499       8.933       8.250       7.419       6.416       5.186       3.693       1.947      5.3612E-03
   2    9.999       9.468       8.863       8.134       7.271       6.296       5.110       3.653       1.930      5.3155E-03
   3    9.999       9.409       8.720       7.869       6.894       6.022       4.955       3.577       1.900      5.2318E-03
   4    9.998       9.336       8.519       7.412       6.029       5.548       4.737       3.484       1.866      5.1380E-03
   5    9.998       9.291       8.365       6.862       3.626       4.975       4.570       3.429       1.849      5.0903E-03
   6    9.998       9.337       8.521       7.415       6.033       5.552       4.739       3.486       1.867      5.1402E-03
   7    9.999       9.413       8.727       7.878       6.904       6.031       4.962       3.581       1.902      5.2381E-03
   8    9.999       9.477       8.880       8.157       7.297       6.319       5.128       3.664       1.935      5.3302E-03
   9    9.999       9.517       8.970       8.302       7.479       6.470       5.226       3.717       1.958      5.3929E-03
  10    9.999       9.536       9.009       8.363       7.551       6.532       5.269       3.742       1.969      5.4230E-03
1
              HEAD IN LAYER   3 AT END OF TIME STEP  76 IN STRESS PERIOD    3
  ---------------------------------------------------------------------------

            1           2           3           4           5           6           7           8           9          10
 ........................................................................................................................
   1    9.999       9.495       8.925       8.239       7.405       6.401       5.171       3.680       1.938      5.7483E-03
   2    9.999       9.464       8.855       8.122       7.256       6.280       5.095       3.640       1.921      5.6988E-03
   3    9.999       9.404       8.711       7.855       6.878       6.005       4.939       3.563       1.891      5.6085E-03
   4    9.998       9.330       8.509       7.397       6.020       5.531       4.720       3.470       1.856      5.5075E-03
   5    9.998       9.286       8.354       6.853       3.971       4.967       4.553       3.415       1.839      5.4563E-03
   6    9.998       9.332       8.511       7.400       6.024       5.534       4.723       3.472       1.857      5.5100E-03
   7    9.999       9.408       8.718       7.865       6.889       6.015       4.946       3.568       1.893      5.6155E-03
   8    9.999       9.472       8.872       8.145       7.283       6.304       5.113       3.652       1.927      5.7150E-03
   9    9.999       9.513       8.962       8.292       7.466       6.456       5.212       3.705       1.949      5.7829E-03
  10    9.999       9.532       9.002       8.353       7.539       6.519       5.256       3.730       1.960      5.8156E-03
1
              HEAD IN LAYER   4 AT END OF TIME STEP  76 IN STRESS PERIOD    3
  ---------------------------------------------------------------------------

            1           2           3           4           5           6           7           8           9          10
 ........................................................................................................................
   1    9.999       9.493       8.921       8.233       7.398       6.393       5.164       3.674       1.933      5.7785E-03
   2    9.999       9.462       8.851       8.116       7.249       6.272       5.088       3.634       1.917      5.7284E-03
   3    9.999       9.402       8.706       7.849       6.870       5.997       4.931       3.557       1.886      5.6372E-03
   4    9.998       9.328       8.504       7.390       6.017       5.522       4.712       3.463       1.852      5.5352E-03
   5    9.998       9.283       8.349       6.851       4.136       4.965       4.545       3.408       1.834      5.4835E-03
   6    9.998       9.329       8.506       7.393       6.021       5.526       4.715       3.465       1.853      5.5377E-03
   7    9.999       9.405       8.713       7.858       6.881       6.007       4.938       3.561       1.888      5.6443E-03
   8    9.999       9.470       8.868       8.139       7.276       6.297       5.106       3.645       1.922      5.7450E-03
   9    9.999       9.512       8.959       8.287       7.460       6.449       5.205       3.699       1.945      5.8138E-03
  10    9.999       9.531       8.999       8.349       7.533       6.512       5.249       3.725       1.956      5.8469E-03

 HEAD WILL BE SAVED ON UNIT   51 AT END OF TIME STEP   76, STRESS PERIOD    3

 DRAWDOWN WILL BE SAVED ON UNIT   52 AT END OF TIME STEP   76, STRESS PERIOD    3
1
  VOLUMETRIC BUDGET FOR ENTIRE MODEL AT END OF TIME STEP   76, STRESS PERIOD   3
  ------------------------------------------------------------------------------

     CUMULATIVE VOLUMES      L**3       RATES FOR THIS TIME STEP      L**3/T
     ------------------                 ------------------------

           IN:                                      IN:
           ---                                      ---
             STORAGE =      425477.5938               STORAGE =        1125.1202
       CONSTANT HEAD =           0.0000         CONSTANT HEAD =           0.0000
               WELLS =           0.0000                 WELLS =           0.0000
     HEAD DEP BOUNDS =       18317.1367       HEAD DEP BOUNDS =         341.1135

            TOTAL IN =      443794.7188              TOTAL IN =        1466.2338

          OUT:                                     OUT:
          ----                                     ----
             STORAGE =           0.0000               STORAGE =           0.0000
       CONSTANT HEAD =           0.0000         CONSTANT HEAD =           0.0000
               WELLS =       38000.0000                 WELLS =         500.0000
     HEAD DEP BOUNDS =      405796.3750       HEAD DEP BOUNDS =         966.2416

           TOTAL OUT =      443796.3750             TOTAL OUT =        1466.2416

            IN - OUT =          -1.6562              IN - OUT =      -7.8125E-03

 PERCENT DISCREPANCY =          -0.00     PERCENT DISCREPANCY =          -0.00






         TIME SUMMARY AT END OF TIME STEP   76 IN STRESS PERIOD    3
                    SECONDS     MINUTES      HOURS       DAYS        YEARS
                    -----------------------------------------------------------
   TIME STEP LENGTH  86400.      1440.0      24.000      1.0000     2.73785E-03
 STRESS PERIOD TIME 6.56640E+06 1.09440E+05  1824.0      76.000     0.20808    
         TOTAL TIME 1.52928E+07 2.54880E+05  4248.0      177.00     0.48460    
1
 
 SOLVING FOR HEAD 

 OUTPUT CONTROL FOR STRESS PERIOD    3   TIME STEP   77
    SAVE HEAD FOR ALL LAYERS
    SAVE DRAWDOWN FOR ALL LAYERS
    SAVE BUDGET
    PRINT HEAD FOR ALL LAYERS
    PRINT BUDGET
 UBDSV1 SAVING "         STORAGE" ON UNIT  53 AT TIME STEP 77, STRESS PERIOD   3
 UBDSV2 SAVING "   CONSTANT HEAD" ON UNIT  53 AT TIME STEP 77, STRESS PERIOD   3
 UBDSV1 SAVING "FLOW RIGHT FACE " ON UNIT  53 AT TIME STEP 77, STRESS PERIOD   3
 UBDSV1 SAVING "FLOW FRONT FACE " ON UNIT  53 AT TIME STEP 77, STRESS PERIOD   3
 UBDSV1 SAVING "FLOW LOWER FACE " ON UNIT  53 AT TIME STEP 77, STRESS PERIOD   3
1
              HEAD IN LAYER   1 AT END OF TIME STEP  77 IN STRESS PERIOD    3
  ---------------------------------------------------------------------------

            1           2           3           4           5           6           7           8           9          10
 ........................................................................................................................
   1    9.999       9.500       8.934       8.252       7.421       6.418       5.188       3.695       1.950      2.7797E-03
   2    9.999       9.469       8.865       8.136       7.273       6.298       5.112       3.655       1.933      2.7540E-03
   3    9.999       9.410       8.722       7.871       6.896       6.024       4.956       3.579       1.903      2.7073E-03
   4    9.998       9.337       8.521       7.415       6.028       5.549       4.738       3.486       1.869      2.6549E-03
   5    9.998       9.293       8.368       6.864       3.173       4.971       4.571       3.431       1.851      2.6284E-03
   6    9.998       9.338       8.524       7.418       6.032       5.553       4.741       3.487       1.869      2.6562E-03
   7    9.999       9.414       8.729       7.880       6.907       6.033       4.964       3.584       1.905      2.7109E-03
   8    9.999       9.478       8.881       8.159       7.299       6.321       5.130       3.667       1.938      2.7624E-03
   9    9.999       9.518       8.971       8.304       7.481       6.472       5.228       3.720       1.961      2.7975E-03
  10    9.999       9.537       9.010       8.365       7.553       6.534       5.271       3.745       1.972      2.8144E-03
1
              HEAD IN LAYER   2 AT END OF TIME STEP  77 IN STRESS PERIOD    3
  ---------------------------------------------------------------------------

            1           2           3           4           5           6           7           8           9          10
 ........................................................................................................................
   1    9.999       9.494       8.923       8.236       7.402       6.398       5.170       3.681       1.940      5.3422E-03
   2    9.999       9.463       8.853       8.119       7.253       6.277       5.094       3.640       1.923      5.2957E-03
   3    9.999       9.403       8.708       7.852       6.875       6.002       4.937       3.563       1.892      5.2110E-03
   4    9.998       9.329       8.507       7.394       6.008       5.527       4.718       3.470       1.858      5.1161E-03
   5    9.998       9.285       8.352       6.844       3.604       4.953       4.550       3.415       1.841      5.0680E-03
   6    9.998       9.330       8.509       7.397       6.012       5.530       4.720       3.471       1.859      5.1185E-03
   7    9.999       9.407       8.715       7.862       6.886       6.012       4.944       3.568       1.895      5.2176E-03
   8    9.999       9.471       8.870       8.142       7.280       6.302       5.112       3.652       1.929      5.3111E-03
   9    9.999       9.512       8.960       8.290       7.463       6.454       5.211       3.706       1.952      5.3749E-03
  10    9.999       9.531       9.001       8.351       7.536       6.517       5.255       3.731       1.963      5.4056E-03
1
              HEAD IN LAYER   3 AT END OF TIME STEP  77 IN STRESS PERIOD    3
  ---------------------------------------------------------------------------

            1           2           3           4           5           6           7           8           9          10
 ........................................................................................................................
   1    9.999       9.489       8.915       8.224       7.389       6.384       5.155       3.668       1.931      5.7281E-03
   2    9.999       9.458       8.844       8.107       7.239       6.262       5.079       3.627       1.914      5.6778E-03
   3    9.998       9.398       8.699       7.839       6.859       5.985       4.921       3.550       1.883      5.5864E-03
   4    9.998       9.324       8.496       7.379       5.999       5.510       4.701       3.456       1.849      5.4843E-03
   5    9.998       9.279       8.342       6.835       3.949       4.945       4.534       3.401       1.831      5.4327E-03
   6    9.998       9.325       8.499       7.383       6.003       5.513       4.704       3.457       1.850      5.4870E-03
   7    9.999       9.402       8.706       7.849       6.870       5.996       4.929       3.555       1.886      5.5937E-03
   8    9.999       9.467       8.862       8.131       7.266       6.287       5.098       3.639       1.920      5.6947E-03
   9    9.999       9.509       8.953       8.279       7.451       6.440       5.197       3.694       1.943      5.7638E-03
  10    9.999       9.528       8.994       8.341       7.524       6.504       5.241       3.719       1.954      5.7972E-03
1
              HEAD IN LAYER   4 AT END OF TIME STEP  77 IN STRESS PERIOD    3
  ---------------------------------------------------------------------------

            1           2           3           4           5           6           7           8           9          10
 ........................................................................................................................
   1    9.999       9.487       8.911       8.219       7.382       6.376       5.148       3.662       1.927      5.7582E-03
   2    9.999       9.456       8.840       8.101       7.232       6.254       5.071       3.621       1.909      5.7074E-03
   3    9.998       9.396       8.694       7.832       6.851       5.977       4.913       3.543       1.879      5.6150E-03
   4    9.998       9.321       8.491       7.372       5.996       5.501       4.693       3.449       1.844      5.5119E-03
   5    9.998       9.277       8.336       6.833       4.114       4.943       4.526       3.394       1.826      5.4598E-03
   6    9.998       9.323       8.494       7.376       6.000       5.505       4.696       3.451       1.845      5.5146E-03
   7    9.999       9.400       8.702       7.843       6.862       5.987       4.921       3.548       1.881      5.6224E-03
   8    9.999       9.465       8.858       8.125       7.259       6.279       5.090       3.633       1.915      5.7246E-03
   9    9.999       9.507       8.950       8.274       7.445       6.433       5.190       3.688       1.939      5.7946E-03
  10    9.999       9.526       8.990       8.336       7.519       6.497       5.235       3.714       1.950      5.8284E-03

 HEAD WILL BE SAVED ON UNIT   51 AT END OF TIME STEP   77, STRESS PERIOD    3

 DRAWDOWN WILL BE SAVED ON UNIT   52 AT END OF TIME STEP   77, STRESS PERIOD    3
1
  VOLUMETRIC BUDGET FOR ENTIRE MODEL AT END OF TIME STEP   77, STRESS PERIOD   3
  ------------------------------------------------------------------------------

     CUMULATIVE VOLUMES      L**3       RATES FOR THIS TIME STEP      L**3/T
     ------------------                 ------------------------

           IN:                                      IN:
           ---                                      ---
             STORAGE =      426595.6562               STORAGE =        1118.0720
       CONSTANT HEAD =           0.0000         CONSTANT HEAD =           0.0000
               WELLS =           0.0000                 WELLS =           0.0000
     HEAD DEP BOUNDS =       18661.5977       HEAD DEP BOUNDS =         344.4618

            TOTAL IN =      445257.2500              TOTAL IN =        1462.5338

          OUT:                                     OUT:
          ----                                     ----
             STORAGE =           0.0000               STORAGE =           0.0000
       CONSTANT HEAD =           0.0000         CONSTANT HEAD =           0.0000
               WELLS =       38500.0000                 WELLS =         500.0000
     HEAD DEP BOUNDS =      406758.9062       HEAD DEP BOUNDS =         962.5456

           TOTAL OUT =      445258.9062             TOTAL OUT =        1462.5457

            IN - OUT =          -1.6562              IN - OUT =      -1.1841E-02

 PERCENT DISCREPANCY =          -0.00     PERCENT DISCREPANCY =          -0.00






         TIME SUMMARY AT END OF TIME STEP   77 IN STRESS PERIOD    3
                    SECONDS     MINUTES      HOURS       DAYS        YEARS
                    -----------------------------------------------------------
   TIME STEP LENGTH  86400.      1440.0      24.000      1.0000     2.73785E-03
 STRESS PERIOD TIME 6.65280E+06 1.10880E+05  1848.0      77.000     0.21081    
         TOTAL TIME 1.53792E+07 2.56320E+05  4272.0      178.00     0.48734    
1
 
 SOLVING FOR HEAD 

 OUTPUT CONTROL FOR STRESS PERIOD    3   TIME STEP   78
    SAVE HEAD FOR ALL LAYERS
    SAVE DRAWDOWN FOR ALL LAYERS
    SAVE BUDGET
    PRINT HEAD FOR ALL LAYERS
    PRINT BUDGET
 UBDSV1 SAVING "         STORAGE" ON UNIT  53 AT TIME STEP 78, STRESS PERIOD   3
 UBDSV2 SAVING "   CONSTANT HEAD" ON UNIT  53 AT TIME STEP 78, STRESS PERIOD   3
 UBDSV1 SAVING "FLOW RIGHT FACE " ON UNIT  53 AT TIME STEP 78, STRESS PERIOD   3
 UBDSV1 SAVING "FLOW FRONT FACE " ON UNIT  53 AT TIME STEP 78, STRESS PERIOD   3
 UBDSV1 SAVING "FLOW LOWER FACE " ON UNIT  53 AT TIME STEP 78, STRESS PERIOD   3
1
              HEAD IN LAYER   1 AT END OF TIME STEP  78 IN STRESS PERIOD    3
  ---------------------------------------------------------------------------

            1           2           3           4           5           6           7           8           9          10
 ........................................................................................................................
   1    9.999       9.494       8.924       8.237       7.404       6.400       5.172       3.683       1.943      2.7692E-03
   2    9.999       9.464       8.854       8.121       7.255       6.280       5.096       3.643       1.926      2.7431E-03
   3    9.999       9.404       8.710       7.855       6.877       6.004       4.939       3.565       1.895      2.6957E-03
   4    9.998       9.330       8.509       7.397       6.007       5.528       4.719       3.471       1.861      2.6429E-03
   5    9.998       9.286       8.355       6.846       3.150       4.949       4.551       3.416       1.843      2.6160E-03
   6    9.998       9.332       8.511       7.400       6.011       5.532       4.722       3.473       1.862      2.6442E-03
   7    9.999       9.408       8.717       7.864       6.888       6.014       4.946       3.570       1.897      2.6994E-03
   8    9.999       9.472       8.871       8.144       7.282       6.304       5.114       3.654       1.931      2.7518E-03
   9    9.999       9.513       8.962       8.291       7.465       6.456       5.213       3.709       1.955      2.7874E-03
  10    9.999       9.532       9.002       8.352       7.538       6.519       5.257       3.734       1.966      2.8047E-03
1
              HEAD IN LAYER   2 AT END OF TIME STEP  78 IN STRESS PERIOD    3
  ---------------------------------------------------------------------------

            1           2           3           4           5           6           7           8           9          10
 ........................................................................................................................
   1    9.999       9.488       8.913       8.222       7.386       6.381       5.154       3.668       1.933      5.3233E-03
   2    9.999       9.457       8.842       8.104       7.236       6.259       5.077       3.627       1.916      5.2761E-03
   3    9.998       9.397       8.697       7.836       6.856       5.982       4.919       3.550       1.885      5.1903E-03
   4    9.998       9.323       8.494       7.377       5.987       5.506       4.699       3.455       1.850      5.0945E-03
   5    9.998       9.278       8.340       6.826       3.581       4.931       4.531       3.400       1.833      5.0460E-03
   6    9.998       9.324       8.497       7.380       5.991       5.510       4.702       3.457       1.851      5.0969E-03
   7    9.999       9.401       8.704       7.846       6.867       5.993       4.927       3.555       1.887      5.1972E-03
   8    9.999       9.466       8.860       8.128       7.263       6.284       5.096       3.640       1.922      5.2921E-03
   9    9.999       9.508       8.951       8.277       7.448       6.438       5.196       3.694       1.945      5.3570E-03
  10    9.999       9.527       8.992       8.339       7.522       6.502       5.240       3.720       1.956      5.3884E-03
1
              HEAD IN LAYER   3 AT END OF TIME STEP  78 IN STRESS PERIOD    3
  ---------------------------------------------------------------------------

            1           2           3           4           5           6           7           8           9          10
 ........................................................................................................................
   1    9.999       9.484       8.905       8.210       7.372       6.366       5.140       3.656       1.924      5.7079E-03
   2    9.999       9.453       8.834       8.092       7.221       6.244       5.062       3.615       1.907      5.6570E-03
   3    9.998       9.392       8.688       7.823       6.840       5.966       4.903       3.536       1.876      5.5644E-03
   4    9.998       9.317       8.484       7.362       5.978       5.489       4.683       3.442       1.841      5.4613E-03
   5    9.998       9.273       8.329       6.817       3.927       4.923       4.515       3.386       1.823      5.4093E-03
   6    9.998       9.319       8.487       7.366       5.982       5.493       4.686       3.443       1.842      5.4640E-03
   7    9.998       9.396       8.695       7.833       6.852       5.976       4.912       3.542       1.878      5.5720E-03
   8    9.999       9.462       8.852       8.117       7.249       6.270       5.082       3.627       1.913      5.6745E-03
   9    9.999       9.504       8.944       8.267       7.436       6.424       5.183       3.683       1.937      5.7448E-03
  10    9.999       9.523       8.985       8.329       7.510       6.489       5.228       3.709       1.948      5.7789E-03
1
              HEAD IN LAYER   4 AT END OF TIME STEP  78 IN STRESS PERIOD    3
  ---------------------------------------------------------------------------

            1           2           3           4           5           6           7           8           9          10
 ........................................................................................................................
   1    9.999       9.482       8.901       8.205       7.365       6.359       5.133       3.650       1.920      5.7380E-03
   2    9.999       9.451       8.829       8.086       7.214       6.236       5.055       3.608       1.902      5.6864E-03
   3    9.998       9.390       8.683       7.816       6.832       5.958       4.896       3.530       1.871      5.5929E-03
   4    9.998       9.315       8.479       7.355       5.976       5.481       4.675       3.435       1.836      5.4888E-03
   5    9.998       9.270       8.324       6.815       4.092       4.921       4.507       3.379       1.819      5.4363E-03
   6    9.998       9.316       8.482       7.359       5.980       5.484       4.677       3.437       1.837      5.4916E-03
   7    9.998       9.394       8.691       7.827       6.844       5.968       4.904       3.535       1.874      5.6007E-03
   8    9.999       9.460       8.848       8.111       7.242       6.262       5.075       3.621       1.908      5.7043E-03
   9    9.999       9.502       8.940       8.261       7.429       6.417       5.176       3.677       1.932      5.7756E-03
  10    9.999       9.522       8.982       8.324       7.504       6.482       5.221       3.703       1.944      5.8101E-03

 HEAD WILL BE SAVED ON UNIT   51 AT END OF TIME STEP   78, STRESS PERIOD    3

 DRAWDOWN WILL BE SAVED ON UNIT   52 AT END OF TIME STEP   78, STRESS PERIOD    3
1
  VOLUMETRIC BUDGET FOR ENTIRE MODEL AT END OF TIME STEP   78, STRESS PERIOD   3
  ------------------------------------------------------------------------------

     CUMULATIVE VOLUMES      L**3       RATES FOR THIS TIME STEP      L**3/T
     ------------------                 ------------------------

           IN:                                      IN:
           ---                                      ---
             STORAGE =      427706.7188               STORAGE =        1111.0641
       CONSTANT HEAD =           0.0000         CONSTANT HEAD =           0.0000
               WELLS =           0.0000                 WELLS =           0.0000
     HEAD DEP BOUNDS =       19009.4121       HEAD DEP BOUNDS =         347.8152

            TOTAL IN =      446716.1250              TOTAL IN =        1458.8794

          OUT:                                     OUT:
          ----                                     ----
             STORAGE =           0.0000               STORAGE =           0.0000
       CONSTANT HEAD =           0.0000         CONSTANT HEAD =           0.0000
               WELLS =       39000.0000                 WELLS =         500.0000
     HEAD DEP BOUNDS =      407717.7812       HEAD DEP BOUNDS =         958.8752

           TOTAL OUT =      446717.7812             TOTAL OUT =        1458.8752

            IN - OUT =          -1.6562              IN - OUT =       4.1504E-03

 PERCENT DISCREPANCY =          -0.00     PERCENT DISCREPANCY =           0.00






         TIME SUMMARY AT END OF TIME STEP   78 IN STRESS PERIOD    3
                    SECONDS     MINUTES      HOURS       DAYS        YEARS
                    -----------------------------------------------------------
   TIME STEP LENGTH  86400.      1440.0      24.000      1.0000     2.73785E-03
 STRESS PERIOD TIME 6.73920E+06 1.12320E+05  1872.0      78.000     0.21355    
         TOTAL TIME 1.54656E+07 2.57760E+05  4296.0      179.00     0.49008    
1
 
 SOLVING FOR HEAD 

 OUTPUT CONTROL FOR STRESS PERIOD    3   TIME STEP   79
    SAVE HEAD FOR ALL LAYERS
    SAVE DRAWDOWN FOR ALL LAYERS
    SAVE BUDGET
    PRINT HEAD FOR ALL LAYERS
    PRINT BUDGET
 UBDSV1 SAVING "         STORAGE" ON UNIT  53 AT TIME STEP 79, STRESS PERIOD   3
 UBDSV2 SAVING "   CONSTANT HEAD" ON UNIT  53 AT TIME STEP 79, STRESS PERIOD   3
 UBDSV1 SAVING "FLOW RIGHT FACE " ON UNIT  53 AT TIME STEP 79, STRESS PERIOD   3
 UBDSV1 SAVING "FLOW FRONT FACE " ON UNIT  53 AT TIME STEP 79, STRESS PERIOD   3
 UBDSV1 SAVING "FLOW LOWER FACE " ON UNIT  53 AT TIME STEP 79, STRESS PERIOD   3
1
              HEAD IN LAYER   1 AT END OF TIME STEP  79 IN STRESS PERIOD    3
  ---------------------------------------------------------------------------

            1           2           3           4           5           6           7           8           9          10
 ........................................................................................................................
   1    9.999       9.489       8.914       8.223       7.388       6.383       5.156       3.671       1.936      2.7586E-03
   2    9.999       9.458       8.843       8.106       7.238       6.261       5.079       3.630       1.919      2.7322E-03
   3    9.999       9.398       8.699       7.838       6.858       5.984       4.921       3.552       1.888      2.6843E-03
   4    9.998       9.324       8.496       7.379       5.986       5.507       4.700       3.457       1.853      2.6308E-03
   5    9.998       9.280       8.342       6.828       3.128       4.927       4.532       3.402       1.835      2.6039E-03
   6    9.998       9.325       8.499       7.383       5.990       5.511       4.703       3.459       1.854      2.6323E-03
   7    9.999       9.402       8.706       7.848       6.869       5.995       4.929       3.557       1.890      2.6882E-03
   8    9.999       9.467       8.861       8.130       7.265       6.286       5.098       3.642       1.925      2.7410E-03
   9    9.999       9.509       8.953       8.278       7.450       6.440       5.198       3.697       1.948      2.7775E-03
  10    9.999       9.528       8.993       8.340       7.524       6.504       5.243       3.723       1.959      2.7951E-03
1
              HEAD IN LAYER   2 AT END OF TIME STEP  79 IN STRESS PERIOD    3
  ---------------------------------------------------------------------------

            1           2           3           4           5           6           7           8           9          10
 ........................................................................................................................
   1    9.999       9.483       8.903       8.208       7.369       6.364       5.138       3.656       1.926      5.3045E-03
   2    9.999       9.452       8.831       8.089       7.218       6.241       5.061       3.615       1.909      5.2566E-03
   3    9.998       9.391       8.685       7.820       6.837       5.963       4.901       3.536       1.878      5.1697E-03
   4    9.998       9.316       8.482       7.359       5.967       5.485       4.680       3.441       1.843      5.0729E-03
   5    9.998       9.272       8.327       6.808       3.558       4.910       4.512       3.386       1.825      5.0241E-03
   6    9.998       9.318       8.485       7.363       5.971       5.489       4.683       3.443       1.843      5.0755E-03
   7    9.998       9.395       8.693       7.831       6.848       5.974       4.910       3.542       1.880      5.1769E-03
   8    9.999       9.461       8.849       8.114       7.246       6.267       5.080       3.627       1.915      5.2732E-03
   9    9.999       9.503       8.942       8.264       7.433       6.422       5.181       3.683       1.939      5.3393E-03
  10    9.999       9.523       8.983       8.327       7.508       6.487       5.227       3.709       1.950      5.3713E-03
1
              HEAD IN LAYER   3 AT END OF TIME STEP  79 IN STRESS PERIOD    3
  ---------------------------------------------------------------------------

            1           2           3           4           5           6           7           8           9          10
 ........................................................................................................................
   1    9.999       9.479       8.895       8.197       7.356       6.349       5.124       3.644       1.917      5.6879E-03
   2    9.999       9.447       8.823       8.077       7.204       6.226       5.046       3.602       1.900      5.6363E-03
   3    9.998       9.386       8.676       7.807       6.821       5.946       4.886       3.523       1.868      5.5426E-03
   4    9.998       9.311       8.472       7.345       5.958       5.468       4.664       3.428       1.833      5.4384E-03
   5    9.998       9.266       8.316       6.800       3.905       4.902       4.496       3.372       1.815      5.3860E-03
   6    9.998       9.313       8.474       7.349       5.962       5.472       4.667       3.429       1.834      5.4413E-03
   7    9.998       9.390       8.684       7.818       6.833       5.957       4.894       3.528       1.871      5.5505E-03
   8    9.999       9.457       8.841       8.103       7.233       6.252       5.066       3.615       1.906      5.6544E-03
   9    9.999       9.499       8.935       8.254       7.421       6.408       5.168       3.671       1.930      5.7260E-03
  10    9.999       9.519       8.977       8.317       7.496       6.474       5.214       3.698       1.942      5.7607E-03
1
              HEAD IN LAYER   4 AT END OF TIME STEP  79 IN STRESS PERIOD    3
  ---------------------------------------------------------------------------

            1           2           3           4           5           6           7           8           9          10
 ........................................................................................................................
   1    9.999       9.477       8.891       8.191       7.349       6.342       5.117       3.638       1.913      5.7179E-03
   2    9.999       9.445       8.819       8.071       7.197       6.218       5.038       3.596       1.896      5.6656E-03
   3    9.998       9.384       8.671       7.800       6.813       5.938       4.878       3.516       1.864      5.5710E-03
   4    9.998       9.309       8.467       7.338       5.955       5.460       4.656       3.421       1.829      5.4659E-03
   5    9.998       9.264       8.311       6.797       4.070       4.900       4.488       3.365       1.811      5.4130E-03
   6    9.998       9.310       8.469       7.342       5.960       5.464       4.659       3.423       1.830      5.4688E-03
   7    9.998       9.388       8.679       7.811       6.826       5.949       4.887       3.522       1.867      5.5791E-03
   8    9.999       9.455       8.838       8.097       7.226       6.245       5.059       3.609       1.902      5.6842E-03
   9    9.999       9.497       8.931       8.249       7.414       6.401       5.161       3.665       1.926      5.7566E-03
  10    9.999       9.517       8.973       8.312       7.490       6.467       5.207       3.692       1.938      5.7918E-03

 HEAD WILL BE SAVED ON UNIT   51 AT END OF TIME STEP   79, STRESS PERIOD    3

 DRAWDOWN WILL BE SAVED ON UNIT   52 AT END OF TIME STEP   79, STRESS PERIOD    3
1
  VOLUMETRIC BUDGET FOR ENTIRE MODEL AT END OF TIME STEP   79, STRESS PERIOD   3
  ------------------------------------------------------------------------------

     CUMULATIVE VOLUMES      L**3       RATES FOR THIS TIME STEP      L**3/T
     ------------------                 ------------------------

           IN:                                      IN:
           ---                                      ---
             STORAGE =      428810.8125               STORAGE =        1104.1014
       CONSTANT HEAD =           0.0000         CONSTANT HEAD =           0.0000
               WELLS =           0.0000                 WELLS =           0.0000
     HEAD DEP BOUNDS =       19360.5566       HEAD DEP BOUNDS =         351.1437

            TOTAL IN =      448171.3750              TOTAL IN =        1455.2451

          OUT:                                     OUT:
          ----                                     ----
             STORAGE =           0.0000               STORAGE =           0.0000
       CONSTANT HEAD =           0.0000         CONSTANT HEAD =           0.0000
               WELLS =       39500.0000                 WELLS =         500.0000
     HEAD DEP BOUNDS =      408673.0000       HEAD DEP BOUNDS =         955.2286

           TOTAL OUT =      448173.0000             TOTAL OUT =        1455.2285

            IN - OUT =          -1.6250              IN - OUT =       1.6602E-02

 PERCENT DISCREPANCY =          -0.00     PERCENT DISCREPANCY =           0.00






         TIME SUMMARY AT END OF TIME STEP   79 IN STRESS PERIOD    3
                    SECONDS     MINUTES      HOURS       DAYS        YEARS
                    -----------------------------------------------------------
   TIME STEP LENGTH  86400.      1440.0      24.000      1.0000     2.73785E-03
 STRESS PERIOD TIME 6.82560E+06 1.13760E+05  1896.0      79.000     0.21629    
         TOTAL TIME 1.55520E+07 2.59200E+05  4320.0      180.00     0.49281    
1
 
 SOLVING FOR HEAD 

 OUTPUT CONTROL FOR STRESS PERIOD    3   TIME STEP   80
    SAVE HEAD FOR ALL LAYERS
    SAVE DRAWDOWN FOR ALL LAYERS
    SAVE BUDGET
    PRINT HEAD FOR ALL LAYERS
    PRINT BUDGET
 UBDSV1 SAVING "         STORAGE" ON UNIT  53 AT TIME STEP 80, STRESS PERIOD   3
 UBDSV2 SAVING "   CONSTANT HEAD" ON UNIT  53 AT TIME STEP 80, STRESS PERIOD   3
 UBDSV1 SAVING "FLOW RIGHT FACE " ON UNIT  53 AT TIME STEP 80, STRESS PERIOD   3
 UBDSV1 SAVING "FLOW FRONT FACE " ON UNIT  53 AT TIME STEP 80, STRESS PERIOD   3
 UBDSV1 SAVING "FLOW LOWER FACE " ON UNIT  53 AT TIME STEP 80, STRESS PERIOD   3
1
              HEAD IN LAYER   1 AT END OF TIME STEP  80 IN STRESS PERIOD    3
  ---------------------------------------------------------------------------

            1           2           3           4           5           6           7           8           9          10
 ........................................................................................................................
   1    9.999       9.484       8.904       8.209       7.371       6.366       5.141       3.659       1.929      2.7481E-03
   2    9.999       9.453       8.833       8.091       7.220       6.243       5.063       3.617       1.912      2.7214E-03
   3    9.999       9.392       8.687       7.822       6.839       5.965       4.903       3.538       1.880      2.6729E-03
   4    9.998       9.318       8.484       7.362       5.966       5.486       4.682       3.443       1.845      2.6189E-03
   5    9.998       9.273       8.330       6.810       3.106       4.905       4.513       3.387       1.827      2.5917E-03
   6    9.998       9.319       8.487       7.366       5.970       5.490       4.685       3.445       1.846      2.6203E-03
   7    9.999       9.396       8.695       7.833       6.851       5.975       4.912       3.544       1.883      2.6769E-03
   8    9.999       9.462       8.851       8.116       7.248       6.269       5.082       3.630       1.918      2.7306E-03
   9    9.999       9.504       8.943       8.266       7.435       6.424       5.184       3.686       1.942      2.7676E-03
  10    9.999       9.523       8.984       8.328       7.509       6.489       5.229       3.712       1.953      2.7855E-03
1
              HEAD IN LAYER   2 AT END OF TIME STEP  80 IN STRESS PERIOD    3
  ---------------------------------------------------------------------------

            1           2           3           4           5           6           7           8           9          10
 ........................................................................................................................
   1    9.999       9.478       8.892       8.194       7.353       6.347       5.123       3.644       1.919      5.2858E-03
   2    9.999       9.446       8.821       8.074       7.201       6.223       5.044       3.602       1.902      5.2373E-03
   3    9.998       9.385       8.674       7.804       6.818       5.944       4.884       3.523       1.870      5.1493E-03
   4    9.998       9.310       8.470       7.342       5.946       5.464       4.662       3.427       1.835      5.0515E-03
   5    9.998       9.265       8.314       6.790       3.536       4.888       4.493       3.372       1.817      5.0023E-03
   6    9.998       9.312       8.472       7.346       5.951       5.468       4.665       3.429       1.836      5.0542E-03
   7    9.998       9.389       8.682       7.815       6.830       5.955       4.893       3.528       1.873      5.1568E-03
   8    9.999       9.456       8.839       8.100       7.230       6.250       5.065       3.615       1.908      5.2544E-03
   9    9.999       9.498       8.933       8.251       7.418       6.406       5.167       3.672       1.932      5.3216E-03
  10    9.999       9.518       8.975       8.315       7.493       6.472       5.213       3.698       1.944      5.3543E-03
1
              HEAD IN LAYER   3 AT END OF TIME STEP  80 IN STRESS PERIOD    3
  ---------------------------------------------------------------------------

            1           2           3           4           5           6           7           8           9          10
 ........................................................................................................................
   1    9.999       9.474       8.885       8.183       7.339       6.332       5.108       3.632       1.911      5.6680E-03
   2    9.999       9.442       8.812       8.063       7.187       6.208       5.030       3.590       1.893      5.6156E-03
   3    9.998       9.380       8.665       7.791       6.802       5.927       4.869       3.510       1.861      5.5208E-03
   4    9.998       9.305       8.460       7.328       5.938       5.448       4.646       3.414       1.826      5.4157E-03
   5    9.998       9.260       8.304       6.782       3.883       4.881       4.477       3.358       1.808      5.3629E-03
   6    9.998       9.306       8.462       7.332       5.942       5.452       4.649       3.416       1.827      5.4187E-03
   7    9.998       9.385       8.673       7.802       6.815       5.939       4.877       3.515       1.864      5.5291E-03
   8    9.999       9.452       8.831       8.089       7.216       6.235       5.050       3.603       1.899      5.6345E-03
   9    9.999       9.495       8.926       8.241       7.405       6.392       5.154       3.660       1.924      5.7072E-03
  10    9.999       9.515       8.968       8.305       7.482       6.459       5.200       3.687       1.936      5.7426E-03
1
              HEAD IN LAYER   4 AT END OF TIME STEP  80 IN STRESS PERIOD    3
  ---------------------------------------------------------------------------

            1           2           3           4           5           6           7           8           9          10
 ........................................................................................................................
   1    9.999       9.472       8.881       8.177       7.332       6.325       5.101       3.626       1.906      5.6979E-03
   2    9.999       9.440       8.808       8.057       7.180       6.200       5.022       3.583       1.889      5.6450E-03
   3    9.998       9.378       8.660       7.785       6.795       5.919       4.861       3.503       1.857      5.5492E-03
   4    9.998       9.302       8.454       7.321       5.935       5.439       4.638       3.407       1.821      5.4431E-03
   5    9.998       9.257       8.299       6.780       4.048       4.879       4.469       3.351       1.803      5.3899E-03
   6    9.998       9.304       8.457       7.325       5.940       5.444       4.641       3.409       1.822      5.4462E-03
   7    9.998       9.382       8.668       7.796       6.807       5.931       4.870       3.509       1.859      5.5576E-03
   8    9.999       9.450       8.828       8.083       7.209       6.228       5.043       3.597       1.895      5.6642E-03
   9    9.999       9.493       8.922       8.236       7.399       6.386       5.147       3.654       1.920      5.7378E-03
  10    9.999       9.513       8.965       8.300       7.476       6.452       5.193       3.681       1.932      5.7736E-03

 HEAD WILL BE SAVED ON UNIT   51 AT END OF TIME STEP   80, STRESS PERIOD    3

 DRAWDOWN WILL BE SAVED ON UNIT   52 AT END OF TIME STEP   80, STRESS PERIOD    3
1
  VOLUMETRIC BUDGET FOR ENTIRE MODEL AT END OF TIME STEP   80, STRESS PERIOD   3
  ------------------------------------------------------------------------------

     CUMULATIVE VOLUMES      L**3       RATES FOR THIS TIME STEP      L**3/T
     ------------------                 ------------------------

           IN:                                      IN:
           ---                                      ---
             STORAGE =      429908.0000               STORAGE =        1097.1724
       CONSTANT HEAD =           0.0000         CONSTANT HEAD =           0.0000
               WELLS =           0.0000                 WELLS =           0.0000
     HEAD DEP BOUNDS =       19714.9863       HEAD DEP BOUNDS =         354.4305

            TOTAL IN =      449623.0000              TOTAL IN =        1451.6028

          OUT:                                     OUT:
          ----                                     ----
             STORAGE =           0.0000               STORAGE =           0.0000
       CONSTANT HEAD =           0.0000         CONSTANT HEAD =           0.0000
               WELLS =       40000.0000                 WELLS =         500.0000
     HEAD DEP BOUNDS =      409624.5938       HEAD DEP BOUNDS =         951.6041

           TOTAL OUT =      449624.5938             TOTAL OUT =        1451.6040

            IN - OUT =          -1.5938              IN - OUT =      -1.2207E-03

 PERCENT DISCREPANCY =          -0.00     PERCENT DISCREPANCY =          -0.00






         TIME SUMMARY AT END OF TIME STEP   80 IN STRESS PERIOD    3
                    SECONDS     MINUTES      HOURS       DAYS        YEARS
                    -----------------------------------------------------------
   TIME STEP LENGTH  86400.      1440.0      24.000      1.0000     2.73785E-03
 STRESS PERIOD TIME 6.91200E+06 1.15200E+05  1920.0      80.000     0.21903    
         TOTAL TIME 1.56384E+07 2.60640E+05  4344.0      181.00     0.49555    
1
 
 SOLVING FOR HEAD 

 OUTPUT CONTROL FOR STRESS PERIOD    3   TIME STEP   81
    SAVE HEAD FOR ALL LAYERS
    SAVE DRAWDOWN FOR ALL LAYERS
    SAVE BUDGET
    PRINT HEAD FOR ALL LAYERS
    PRINT BUDGET
 UBDSV1 SAVING "         STORAGE" ON UNIT  53 AT TIME STEP 81, STRESS PERIOD   3
 UBDSV2 SAVING "   CONSTANT HEAD" ON UNIT  53 AT TIME STEP 81, STRESS PERIOD   3
 UBDSV1 SAVING "FLOW RIGHT FACE " ON UNIT  53 AT TIME STEP 81, STRESS PERIOD   3
 UBDSV1 SAVING "FLOW FRONT FACE " ON UNIT  53 AT TIME STEP 81, STRESS PERIOD   3
 UBDSV1 SAVING "FLOW LOWER FACE " ON UNIT  53 AT TIME STEP 81, STRESS PERIOD   3
1
              HEAD IN LAYER   1 AT END OF TIME STEP  81 IN STRESS PERIOD    3
  ---------------------------------------------------------------------------

            1           2           3           4           5           6           7           8           9          10
 ........................................................................................................................
   1    9.999       9.479       8.894       8.195       7.355       6.349       5.125       3.647       1.922      2.7376E-03
   2    9.999       9.447       8.822       8.076       7.203       6.225       5.046       3.605       1.905      2.7106E-03
   3    9.998       9.386       8.676       7.806       6.820       5.945       4.886       3.525       1.873      2.6615E-03
   4    9.998       9.311       8.472       7.345       5.945       5.466       4.663       3.429       1.837      2.6071E-03
   5    9.998       9.267       8.317       6.792       3.084       4.884       4.494       3.373       1.819      2.5797E-03
   6    9.998       9.313       8.475       7.349       5.950       5.469       4.666       3.431       1.838      2.6087E-03
   7    9.999       9.390       8.684       7.817       6.832       5.956       4.895       3.531       1.875      2.6656E-03
   8    9.999       9.457       8.841       8.102       7.232       6.252       5.067       3.618       1.911      2.7201E-03
   9    9.999       9.499       8.934       8.253       7.420       6.408       5.169       3.674       1.935      2.7578E-03
  10    9.999       9.519       8.976       8.316       7.495       6.474       5.215       3.701       1.947      2.7761E-03
1
              HEAD IN LAYER   2 AT END OF TIME STEP  81 IN STRESS PERIOD    3
  ---------------------------------------------------------------------------

            1           2           3           4           5           6           7           8           9          10
 ........................................................................................................................
   1    9.999       9.473       8.883       8.180       7.336       6.330       5.107       3.632       1.913      5.2671E-03
   2    9.999       9.441       8.810       8.060       7.184       6.205       5.028       3.590       1.895      5.2180E-03
   3    9.998       9.379       8.663       7.788       6.799       5.924       4.867       3.510       1.863      5.1290E-03
   4    9.998       9.304       8.457       7.325       5.926       5.444       4.644       3.413       1.827      5.0303E-03
   5    9.998       9.259       8.302       6.773       3.514       4.867       4.474       3.357       1.809      4.9808E-03
   6    9.998       9.305       8.460       7.329       5.931       5.448       4.647       3.415       1.828      5.0332E-03
   7    9.998       9.384       8.671       7.799       6.812       5.936       4.876       3.515       1.866      5.1368E-03
   8    9.999       9.451       8.829       8.086       7.213       6.233       5.049       3.603       1.901      5.2357E-03
   9    9.999       9.494       8.924       8.239       7.403       6.390       5.152       3.660       1.926      5.3041E-03
  10    9.999       9.514       8.966       8.303       7.479       6.457       5.199       3.687       1.938      5.3373E-03
1
              HEAD IN LAYER   3 AT END OF TIME STEP  81 IN STRESS PERIOD    3
  ---------------------------------------------------------------------------

            1           2           3           4           5           6           7           8           9          10
 ........................................................................................................................
   1    9.999       9.469       8.875       8.169       7.323       6.315       5.093       3.620       1.904      5.6482E-03
   2    9.999       9.436       8.802       8.048       7.169       6.190       5.013       3.577       1.886      5.5951E-03
   3    9.998       9.375       8.653       7.775       6.784       5.908       4.851       3.497       1.854      5.4993E-03
   4    9.998       9.299       8.447       7.311       5.918       5.427       4.628       3.400       1.818      5.3932E-03
   5    9.998       9.253       8.291       6.764       3.861       4.860       4.459       3.344       1.800      5.3400E-03
   6    9.998       9.300       8.450       7.315       5.922       5.431       4.631       3.402       1.819      5.3963E-03
   7    9.998       9.379       8.662       7.787       6.797       5.920       4.860       3.503       1.857      5.5078E-03
   8    9.999       9.446       8.822       8.075       7.200       6.218       5.035       3.591       1.893      5.6146E-03
   9    9.999       9.490       8.917       8.228       7.391       6.377       5.139       3.649       1.918      5.6885E-03
  10    9.999       9.510       8.959       8.293       7.467       6.444       5.186       3.676       1.930      5.7246E-03
1
              HEAD IN LAYER   4 AT END OF TIME STEP  81 IN STRESS PERIOD    3
  ---------------------------------------------------------------------------

            1           2           3           4           5           6           7           8           9          10
 ........................................................................................................................
   1    9.999       9.467       8.871       8.163       7.316       6.308       5.086       3.614       1.900      5.6780E-03
   2    9.999       9.434       8.798       8.042       7.162       6.183       5.006       3.571       1.882      5.6244E-03
   3    9.998       9.372       8.649       7.769       6.776       5.900       4.844       3.490       1.849      5.5276E-03
   4    9.998       9.296       8.442       7.304       5.915       5.419       4.620       3.393       1.813      5.4205E-03
   5    9.998       9.251       8.286       6.762       4.027       4.858       4.451       3.337       1.795      5.3669E-03
   6    9.998       9.298       8.445       7.308       5.920       5.423       4.623       3.395       1.814      5.4237E-03
   7    9.998       9.377       8.657       7.780       6.789       5.912       4.853       3.496       1.852      5.5363E-03
   8    9.999       9.444       8.818       8.069       7.193       6.211       5.028       3.585       1.888      5.6443E-03
   9    9.999       9.488       8.913       8.223       7.384       6.370       5.132       3.643       1.913      5.7191E-03
  10    9.999       9.508       8.956       8.288       7.462       6.437       5.180       3.670       1.926      5.7556E-03

 HEAD WILL BE SAVED ON UNIT   51 AT END OF TIME STEP   81, STRESS PERIOD    3

 DRAWDOWN WILL BE SAVED ON UNIT   52 AT END OF TIME STEP   81, STRESS PERIOD    3
1
  VOLUMETRIC BUDGET FOR ENTIRE MODEL AT END OF TIME STEP   81, STRESS PERIOD   3
  ------------------------------------------------------------------------------

     CUMULATIVE VOLUMES      L**3       RATES FOR THIS TIME STEP      L**3/T
     ------------------                 ------------------------

           IN:                                      IN:
           ---                                      ---
             STORAGE =      430998.2812               STORAGE =        1090.2921
       CONSTANT HEAD =           0.0000         CONSTANT HEAD =           0.0000
               WELLS =           0.0000                 WELLS =           0.0000
     HEAD DEP BOUNDS =       20072.7070       HEAD DEP BOUNDS =         357.7201

            TOTAL IN =      451071.0000              TOTAL IN =        1448.0122

          OUT:                                     OUT:
          ----                                     ----
             STORAGE =           0.0000               STORAGE =           0.0000
       CONSTANT HEAD =           0.0000         CONSTANT HEAD =           0.0000
               WELLS =       40500.0000                 WELLS =         500.0000
     HEAD DEP BOUNDS =      410572.5938       HEAD DEP BOUNDS =         948.0045

           TOTAL OUT =      451072.5938             TOTAL OUT =        1448.0044

            IN - OUT =          -1.5938              IN - OUT =       7.8125E-03

 PERCENT DISCREPANCY =          -0.00     PERCENT DISCREPANCY =           0.00






         TIME SUMMARY AT END OF TIME STEP   81 IN STRESS PERIOD    3
                    SECONDS     MINUTES      HOURS       DAYS        YEARS
                    -----------------------------------------------------------
   TIME STEP LENGTH  86400.      1440.0      24.000      1.0000     2.73785E-03
 STRESS PERIOD TIME 6.99840E+06 1.16640E+05  1944.0      81.000     0.22177    
         TOTAL TIME 1.57248E+07 2.62080E+05  4368.0      182.00     0.49829    
1
 
 SOLVING FOR HEAD 

 OUTPUT CONTROL FOR STRESS PERIOD    3   TIME STEP   82
    SAVE HEAD FOR ALL LAYERS
    SAVE DRAWDOWN FOR ALL LAYERS
    SAVE BUDGET
    PRINT HEAD FOR ALL LAYERS
    PRINT BUDGET
 UBDSV1 SAVING "         STORAGE" ON UNIT  53 AT TIME STEP 82, STRESS PERIOD   3
 UBDSV2 SAVING "   CONSTANT HEAD" ON UNIT  53 AT TIME STEP 82, STRESS PERIOD   3
 UBDSV1 SAVING "FLOW RIGHT FACE " ON UNIT  53 AT TIME STEP 82, STRESS PERIOD   3
 UBDSV1 SAVING "FLOW FRONT FACE " ON UNIT  53 AT TIME STEP 82, STRESS PERIOD   3
 UBDSV1 SAVING "FLOW LOWER FACE " ON UNIT  53 AT TIME STEP 82, STRESS PERIOD   3
1
              HEAD IN LAYER   1 AT END OF TIME STEP  82 IN STRESS PERIOD    3
  ---------------------------------------------------------------------------

            1           2           3           4           5           6           7           8           9          10
 ........................................................................................................................
   1    9.999       9.474       8.884       8.182       7.338       6.332       5.109       3.634       1.916      2.7274E-03
   2    9.999       9.442       8.812       8.062       7.186       6.208       5.030       3.592       1.898      2.6997E-03
   3    9.998       9.380       8.664       7.791       6.802       5.926       4.869       3.512       1.865      2.6503E-03
   4    9.998       9.305       8.460       7.328       5.925       5.445       4.645       3.415       1.830      2.5953E-03
   5    9.998       9.260       8.305       6.775       3.062       4.863       4.475       3.359       1.812      2.5678E-03
   6    9.998       9.307       8.463       7.332       5.930       5.449       4.648       3.417       1.831      2.5968E-03
   7    9.998       9.385       8.672       7.802       6.814       5.938       4.878       3.518       1.868      2.6545E-03
   8    9.999       9.451       8.831       8.088       7.215       6.235       5.051       3.606       1.904      2.7097E-03
   9    9.999       9.494       8.925       8.240       7.405       6.392       5.155       3.663       1.929      2.7480E-03
  10    9.999       9.514       8.967       8.304       7.481       6.459       5.201       3.690       1.941      2.7666E-03
1
              HEAD IN LAYER   2 AT END OF TIME STEP  82 IN STRESS PERIOD    3
  ---------------------------------------------------------------------------

            1           2           3           4           5           6           7           8           9          10
 ........................................................................................................................
   1    9.999       9.468       8.873       8.166       7.320       6.313       5.092       3.620       1.906      5.2486E-03
   2    9.999       9.435       8.800       8.045       7.167       6.188       5.012       3.577       1.888      5.1988E-03
   3    9.998       9.373       8.651       7.773       6.781       5.905       4.850       3.496       1.856      5.1088E-03
   4    9.998       9.298       8.445       7.308       5.906       5.424       4.625       3.399       1.820      5.0092E-03
   5    9.998       9.252       8.290       6.755       3.492       4.846       4.456       3.343       1.801      4.9594E-03
   6    9.998       9.299       8.448       7.312       5.911       5.428       4.629       3.402       1.821      5.0122E-03
   7    9.998       9.378       8.660       7.784       6.794       5.917       4.859       3.502       1.858      5.1169E-03
   8    9.999       9.445       8.820       8.072       7.197       6.216       5.033       3.591       1.895      5.2171E-03
   9    9.999       9.489       8.915       8.226       7.388       6.375       5.138       3.649       1.920      5.2866E-03
  10    9.999       9.509       8.958       8.291       7.465       6.442       5.185       3.676       1.932      5.3205E-03
1
              HEAD IN LAYER   3 AT END OF TIME STEP  82 IN STRESS PERIOD    3
  ---------------------------------------------------------------------------

            1           2           3           4           5           6           7           8           9          10
 ........................................................................................................................
   1    9.999       9.463       8.865       8.155       7.307       6.298       5.077       3.608       1.897      5.6285E-03
   2    9.999       9.431       8.792       8.033       7.152       6.173       4.997       3.565       1.879      5.5747E-03
   3    9.998       9.369       8.642       7.760       6.765       5.889       4.834       3.483       1.847      5.4778E-03
   4    9.998       9.292       8.435       7.294       5.898       5.407       4.610       3.386       1.810      5.3708E-03
   5    9.998       9.247       8.279       6.747       3.839       4.839       4.440       3.330       1.792      5.3173E-03
   6    9.998       9.294       8.439       7.298       5.903       5.411       4.613       3.388       1.812      5.3740E-03
   7    9.998       9.373       8.651       7.771       6.779       5.901       4.844       3.490       1.850      5.4867E-03
   8    9.999       9.441       8.812       8.061       7.183       6.201       5.019       3.579       1.886      5.5949E-03
   9    9.999       9.485       8.908       8.216       7.376       6.361       5.125       3.638       1.911      5.6700E-03
  10    9.999       9.506       8.951       8.281       7.453       6.429       5.172       3.665       1.924      5.7067E-03
1
              HEAD IN LAYER   4 AT END OF TIME STEP  82 IN STRESS PERIOD    3
  ---------------------------------------------------------------------------

            1           2           3           4           5           6           7           8           9          10
 ........................................................................................................................
   1    9.999       9.461       8.861       8.149       7.300       6.291       5.070       3.602       1.893      5.6582E-03
   2    9.999       9.429       8.787       8.028       7.145       6.165       4.990       3.559       1.875      5.6039E-03
   3    9.998       9.366       8.638       7.753       6.758       5.881       4.827       3.477       1.842      5.5061E-03
   4    9.998       9.290       8.430       7.287       5.895       5.399       4.602       3.379       1.806      5.3980E-03
   5    9.998       9.244       8.274       6.745       4.005       4.837       4.432       3.323       1.788      5.3441E-03
   6    9.998       9.292       8.434       7.292       5.900       5.403       4.605       3.382       1.807      5.4014E-03
   7    9.998       9.371       8.646       7.765       6.771       5.893       4.836       3.483       1.845      5.5152E-03
   8    9.999       9.439       8.808       8.056       7.177       6.194       5.012       3.573       1.882      5.6245E-03
   9    9.999       9.483       8.904       8.211       7.369       6.354       5.118       3.632       1.907      5.7005E-03
  10    9.999       9.504       8.948       8.277       7.447       6.422       5.166       3.660       1.920      5.7376E-03

 HEAD WILL BE SAVED ON UNIT   51 AT END OF TIME STEP   82, STRESS PERIOD    3

 DRAWDOWN WILL BE SAVED ON UNIT   52 AT END OF TIME STEP   82, STRESS PERIOD    3
1
  VOLUMETRIC BUDGET FOR ENTIRE MODEL AT END OF TIME STEP   82, STRESS PERIOD   3
  ------------------------------------------------------------------------------

     CUMULATIVE VOLUMES      L**3       RATES FOR THIS TIME STEP      L**3/T
     ------------------                 ------------------------

           IN:                                      IN:
           ---                                      ---
             STORAGE =      432081.7188               STORAGE =        1083.4495
       CONSTANT HEAD =           0.0000         CONSTANT HEAD =           0.0000
               WELLS =           0.0000                 WELLS =           0.0000
     HEAD DEP BOUNDS =       20433.6875       HEAD DEP BOUNDS =         360.9796

            TOTAL IN =      452515.4062              TOTAL IN =        1444.4291

          OUT:                                     OUT:
          ----                                     ----
             STORAGE =           0.0000               STORAGE =           0.0000
       CONSTANT HEAD =           0.0000         CONSTANT HEAD =           0.0000
               WELLS =       41000.0000                 WELLS =         500.0000
     HEAD DEP BOUNDS =      411517.0312       HEAD DEP BOUNDS =         944.4255

           TOTAL OUT =      452517.0312             TOTAL OUT =        1444.4255

            IN - OUT =          -1.6250              IN - OUT =       3.5400E-03

 PERCENT DISCREPANCY =          -0.00     PERCENT DISCREPANCY =           0.00






         TIME SUMMARY AT END OF TIME STEP   82 IN STRESS PERIOD    3
                    SECONDS     MINUTES      HOURS       DAYS        YEARS
                    -----------------------------------------------------------
   TIME STEP LENGTH  86400.      1440.0      24.000      1.0000     2.73785E-03
 STRESS PERIOD TIME 7.08480E+06 1.18080E+05  1968.0      82.000     0.22450    
         TOTAL TIME 1.58112E+07 2.63520E+05  4392.0      183.00     0.50103    
1
 
 SOLVING FOR HEAD 

 OUTPUT CONTROL FOR STRESS PERIOD    3   TIME STEP   83
    SAVE HEAD FOR ALL LAYERS
    SAVE DRAWDOWN FOR ALL LAYERS
    SAVE BUDGET
    PRINT HEAD FOR ALL LAYERS
    PRINT BUDGET
 UBDSV1 SAVING "         STORAGE" ON UNIT  53 AT TIME STEP 83, STRESS PERIOD   3
 UBDSV2 SAVING "   CONSTANT HEAD" ON UNIT  53 AT TIME STEP 83, STRESS PERIOD   3
 UBDSV1 SAVING "FLOW RIGHT FACE " ON UNIT  53 AT TIME STEP 83, STRESS PERIOD   3
 UBDSV1 SAVING "FLOW FRONT FACE " ON UNIT  53 AT TIME STEP 83, STRESS PERIOD   3
 UBDSV1 SAVING "FLOW LOWER FACE " ON UNIT  53 AT TIME STEP 83, STRESS PERIOD   3
1
              HEAD IN LAYER   1 AT END OF TIME STEP  83 IN STRESS PERIOD    3
  ---------------------------------------------------------------------------

            1           2           3           4           5           6           7           8           9          10
 ........................................................................................................................
   1    9.999       9.468       8.874       8.168       7.322       6.315       5.094       3.622       1.909      2.7170E-03
   2    9.999       9.436       8.801       8.047       7.169       6.190       5.014       3.580       1.891      2.6892E-03
   3    9.998       9.374       8.653       7.775       6.783       5.907       4.851       3.499       1.858      2.6390E-03
   4    9.998       9.299       8.448       7.311       5.905       5.425       4.627       3.401       1.822      2.5835E-03
   5    9.998       9.254       8.292       6.757       3.040       4.842       4.457       3.345       1.804      2.5560E-03
   6    9.998       9.300       8.451       7.315       5.910       5.429       4.630       3.403       1.823      2.5852E-03
   7    9.998       9.379       8.661       7.786       6.796       5.919       4.861       3.505       1.861      2.6435E-03
   8    9.999       9.446       8.821       8.074       7.199       6.218       5.036       3.593       1.897      2.6993E-03
   9    9.999       9.490       8.916       8.228       7.390       6.377       5.140       3.652       1.923      2.7381E-03
  10    9.999       9.510       8.959       8.292       7.467       6.444       5.187       3.679       1.935      2.7572E-03
1
              HEAD IN LAYER   2 AT END OF TIME STEP  83 IN STRESS PERIOD    3
  ---------------------------------------------------------------------------

            1           2           3           4           5           6           7           8           9          10
 ........................................................................................................................
   1    9.999       9.462       8.863       8.152       7.304       6.296       5.076       3.608       1.899      5.2302E-03
   2    9.999       9.430       8.789       8.031       7.149       6.170       4.996       3.565       1.881      5.1797E-03
   3    9.998       9.368       8.640       7.757       6.762       5.886       4.832       3.483       1.848      5.0888E-03
   4    9.998       9.291       8.433       7.292       5.886       5.403       4.607       3.386       1.812      4.9883E-03
   5    9.998       9.246       8.277       6.738       3.471       4.825       4.437       3.329       1.794      4.9381E-03
   6    9.998       9.293       8.437       7.296       5.891       5.408       4.611       3.388       1.813      4.9914E-03
   7    9.998       9.372       8.649       7.769       6.776       5.899       4.842       3.490       1.851      5.0972E-03
   8    9.999       9.440       8.810       8.059       7.181       6.199       5.018       3.579       1.888      5.1987E-03
   9    9.999       9.484       8.906       8.213       7.373       6.359       5.124       3.638       1.913      5.2693E-03
  10    9.999       9.505       8.949       8.279       7.451       6.427       5.171       3.666       1.926      5.3037E-03
1
              HEAD IN LAYER   3 AT END OF TIME STEP  83 IN STRESS PERIOD    3
  ---------------------------------------------------------------------------

            1           2           3           4           5           6           7           8           9          10
 ........................................................................................................................
   1    9.999       9.458       8.855       8.141       7.290       6.281       5.062       3.596       1.891      5.6088E-03
   2    9.999       9.426       8.781       8.019       7.135       6.155       4.981       3.552       1.872      5.5545E-03
   3    9.998       9.363       8.631       7.744       6.747       5.870       4.817       3.470       1.839      5.4565E-03
   4    9.998       9.286       8.424       7.277       5.878       5.387       4.592       3.372       1.803      5.3485E-03
   5    9.998       9.241       8.267       6.730       3.818       4.818       4.422       3.316       1.785      5.2947E-03
   6    9.998       9.288       8.427       7.282       5.883       5.392       4.595       3.375       1.804      5.3519E-03
   7    9.998       9.368       8.640       7.756       6.761       5.883       4.827       3.477       1.842      5.4658E-03
   8    9.999       9.436       8.802       8.047       7.167       6.184       5.004       3.567       1.879      5.5753E-03
   9    9.999       9.481       8.899       8.203       7.361       6.346       5.110       3.626       1.905      5.6515E-03
  10    9.999       9.501       8.942       8.269       7.439       6.414       5.159       3.655       1.918      5.6889E-03
1
              HEAD IN LAYER   4 AT END OF TIME STEP  83 IN STRESS PERIOD    3
  ---------------------------------------------------------------------------

            1           2           3           4           5           6           7           8           9          10
 ........................................................................................................................
   1    9.999       9.456       8.851       8.136       7.284       6.274       5.055       3.590       1.887      5.6385E-03
   2    9.999       9.423       8.777       8.013       7.128       6.148       4.974       3.546       1.868      5.5836E-03
   3    9.998       9.361       8.626       7.738       6.740       5.862       4.810       3.464       1.835      5.4847E-03
   4    9.998       9.284       8.419       7.271       5.876       5.379       4.584       3.366       1.798      5.3757E-03
   5    9.998       9.238       8.262       6.728       3.984       4.816       4.414       3.309       1.780      5.3215E-03
   6    9.998       9.285       8.422       7.275       5.881       5.384       4.587       3.368       1.800      5.3792E-03
   7    9.998       9.365       8.636       7.750       6.753       5.875       4.820       3.471       1.838      5.4941E-03
   8    9.999       9.434       8.798       8.042       7.160       6.177       4.997       3.561       1.875      5.6048E-03
   9    9.999       9.479       8.895       8.198       7.355       6.339       5.104       3.621       1.901      5.6820E-03
  10    9.999       9.500       8.939       8.265       7.433       6.408       5.152       3.649       1.914      5.7198E-03

 HEAD WILL BE SAVED ON UNIT   51 AT END OF TIME STEP   83, STRESS PERIOD    3

 DRAWDOWN WILL BE SAVED ON UNIT   52 AT END OF TIME STEP   83, STRESS PERIOD    3
1
  VOLUMETRIC BUDGET FOR ENTIRE MODEL AT END OF TIME STEP   83, STRESS PERIOD   3
  ------------------------------------------------------------------------------

     CUMULATIVE VOLUMES      L**3       RATES FOR THIS TIME STEP      L**3/T
     ------------------                 ------------------------

           IN:                                      IN:
           ---                                      ---
             STORAGE =      433158.3750               STORAGE =        1076.6425
       CONSTANT HEAD =           0.0000         CONSTANT HEAD =           0.0000
               WELLS =           0.0000                 WELLS =           0.0000
     HEAD DEP BOUNDS =       20797.9102       HEAD DEP BOUNDS =         364.2225

            TOTAL IN =      453956.2812              TOTAL IN =        1440.8650

          OUT:                                     OUT:
          ----                                     ----
             STORAGE =           0.0000               STORAGE =           0.0000
       CONSTANT HEAD =           0.0000         CONSTANT HEAD =           0.0000
               WELLS =       41500.0000                 WELLS =         500.0000
     HEAD DEP BOUNDS =      412457.9062       HEAD DEP BOUNDS =         940.8690

           TOTAL OUT =      453957.9062             TOTAL OUT =        1440.8689

            IN - OUT =          -1.6250              IN - OUT =      -3.9062E-03

 PERCENT DISCREPANCY =          -0.00     PERCENT DISCREPANCY =          -0.00






         TIME SUMMARY AT END OF TIME STEP   83 IN STRESS PERIOD    3
                    SECONDS     MINUTES      HOURS       DAYS        YEARS
                    -----------------------------------------------------------
   TIME STEP LENGTH  86400.      1440.0      24.000      1.0000     2.73785E-03
 STRESS PERIOD TIME 7.17120E+06 1.19520E+05  1992.0      83.000     0.22724    
         TOTAL TIME 1.58976E+07 2.64960E+05  4416.0      184.00     0.50376    
1
 
 SOLVING FOR HEAD 

 OUTPUT CONTROL FOR STRESS PERIOD    3   TIME STEP   84
    SAVE HEAD FOR ALL LAYERS
    SAVE DRAWDOWN FOR ALL LAYERS
    SAVE BUDGET
    PRINT HEAD FOR ALL LAYERS
    PRINT BUDGET
 UBDSV1 SAVING "         STORAGE" ON UNIT  53 AT TIME STEP 84, STRESS PERIOD   3
 UBDSV2 SAVING "   CONSTANT HEAD" ON UNIT  53 AT TIME STEP 84, STRESS PERIOD   3
 UBDSV1 SAVING "FLOW RIGHT FACE " ON UNIT  53 AT TIME STEP 84, STRESS PERIOD   3
 UBDSV1 SAVING "FLOW FRONT FACE " ON UNIT  53 AT TIME STEP 84, STRESS PERIOD   3
 UBDSV1 SAVING "FLOW LOWER FACE " ON UNIT  53 AT TIME STEP 84, STRESS PERIOD   3
1
              HEAD IN LAYER   1 AT END OF TIME STEP  84 IN STRESS PERIOD    3
  ---------------------------------------------------------------------------

            1           2           3           4           5           6           7           8           9          10
 ........................................................................................................................
   1    9.999       9.463       8.864       8.154       7.306       6.298       5.078       3.611       1.902      2.7067E-03
   2    9.999       9.431       8.791       8.033       7.151       6.172       4.998       3.567       1.884      2.6786E-03
   3    9.998       9.369       8.642       7.759       6.765       5.888       4.834       3.485       1.851      2.6278E-03
   4    9.998       9.293       8.436       7.294       5.885       5.404       4.609       3.387       1.814      2.5721E-03
   5    9.998       9.248       8.280       6.740       3.019       4.821       4.438       3.331       1.796      2.5441E-03
   6    9.998       9.294       8.439       7.299       5.890       5.409       4.612       3.390       1.815      2.5737E-03
   7    9.998       9.373       8.650       7.771       6.778       5.900       4.844       3.492       1.854      2.6326E-03
   8    9.999       9.441       8.811       8.060       7.183       6.201       5.020       3.582       1.891      2.6891E-03
   9    9.999       9.485       8.907       8.215       7.375       6.361       5.126       3.640       1.916      2.7286E-03
  10    9.999       9.506       8.950       8.281       7.453       6.429       5.174       3.668       1.929      2.7478E-03
1
              HEAD IN LAYER   2 AT END OF TIME STEP  84 IN STRESS PERIOD    3
  ---------------------------------------------------------------------------

            1           2           3           4           5           6           7           8           9          10
 ........................................................................................................................
   1    9.999       9.457       8.853       8.138       7.287       6.279       5.061       3.596       1.893      5.2118E-03
   2    9.999       9.425       8.779       8.016       7.132       6.153       4.980       3.553       1.874      5.1608E-03
   3    9.998       9.362       8.629       7.741       6.744       5.868       4.815       3.470       1.841      5.0688E-03
   4    9.998       9.285       8.422       7.275       5.867       5.383       4.589       3.372       1.804      4.9675E-03
   5    9.998       9.240       8.265       6.721       3.449       4.805       4.419       3.315       1.786      4.9170E-03
   6    9.998       9.287       8.425       7.279       5.872       5.388       4.593       3.374       1.806      4.9707E-03
   7    9.998       9.366       8.638       7.754       6.758       5.880       4.825       3.477       1.844      5.0776E-03
   8    9.999       9.435       8.800       8.045       7.164       6.182       5.003       3.567       1.881      5.1804E-03
   9    9.999       9.480       8.897       8.201       7.358       6.343       5.109       3.627       1.907      5.2520E-03
  10    9.999       9.500       8.941       8.267       7.437       6.412       5.158       3.655       1.920      5.2871E-03
1
              HEAD IN LAYER   3 AT END OF TIME STEP  84 IN STRESS PERIOD    3
  ---------------------------------------------------------------------------

            1           2           3           4           5           6           7           8           9          10
 ........................................................................................................................
   1    9.999       9.453       8.845       8.127       7.274       6.265       5.047       3.584       1.884      5.5893E-03
   2    9.999       9.420       8.771       8.005       7.118       6.138       4.965       3.540       1.866      5.5343E-03
   3    9.998       9.357       8.620       7.729       6.729       5.852       4.800       3.458       1.832      5.4353E-03
   4    9.998       9.280       8.412       7.261       5.859       5.367       4.574       3.359       1.795      5.3264E-03
   5    9.998       9.235       8.255       6.713       3.797       4.798       4.404       3.302       1.777      5.2723E-03
   6    9.998       9.282       8.415       7.266       5.864       5.372       4.578       3.361       1.797      5.3300E-03
   7    9.998       9.362       8.629       7.741       6.743       5.865       4.810       3.464       1.835      5.4450E-03
   8    9.999       9.431       8.792       8.034       7.151       6.168       4.989       3.555       1.873      5.5558E-03
   9    9.999       9.476       8.890       8.191       7.346       6.330       5.096       3.615       1.899      5.6332E-03
  10    9.999       9.497       8.934       8.258       7.425       6.399       5.145       3.644       1.912      5.6712E-03
1
              HEAD IN LAYER   4 AT END OF TIME STEP  84 IN STRESS PERIOD    3
  ---------------------------------------------------------------------------

            1           2           3           4           5           6           7           8           9          10
 ........................................................................................................................
   1    9.999       9.451       8.841       8.122       7.267       6.258       5.040       3.578       1.880      5.6190E-03
   2    9.999       9.418       8.767       7.999       7.111       6.130       4.958       3.534       1.861      5.5634E-03
   3    9.998       9.355       8.615       7.722       6.721       5.844       4.793       3.451       1.828      5.4635E-03
   4    9.998       9.278       8.407       7.254       5.856       5.359       4.566       3.352       1.791      5.3536E-03
   5    9.998       9.232       8.250       6.711       3.963       4.796       4.396       3.296       1.773      5.2990E-03
   6    9.998       9.279       8.410       7.259       5.861       5.364       4.570       3.355       1.792      5.3572E-03
   7    9.998       9.360       8.625       7.735       6.736       5.857       4.803       3.458       1.831      5.4733E-03
   8    9.999       9.429       8.788       8.028       7.144       6.160       4.982       3.549       1.869      5.5853E-03
   9    9.999       9.474       8.886       8.186       7.340       6.324       5.090       3.610       1.895      5.6636E-03
  10    9.999       9.495       8.931       8.253       7.419       6.393       5.139       3.638       1.908      5.7020E-03

 HEAD WILL BE SAVED ON UNIT   51 AT END OF TIME STEP   84, STRESS PERIOD    3

 DRAWDOWN WILL BE SAVED ON UNIT   52 AT END OF TIME STEP   84, STRESS PERIOD    3
1
  VOLUMETRIC BUDGET FOR ENTIRE MODEL AT END OF TIME STEP   84, STRESS PERIOD   3
  ------------------------------------------------------------------------------

     CUMULATIVE VOLUMES      L**3       RATES FOR THIS TIME STEP      L**3/T
     ------------------                 ------------------------

           IN:                                      IN:
           ---                                      ---
             STORAGE =      434228.2500               STORAGE =        1069.8801
       CONSTANT HEAD =           0.0000         CONSTANT HEAD =           0.0000
               WELLS =           0.0000                 WELLS =           0.0000
     HEAD DEP BOUNDS =       21165.3555       HEAD DEP BOUNDS =         367.4458

            TOTAL IN =      455393.5938              TOTAL IN =        1437.3259

          OUT:                                     OUT:
          ----                                     ----
             STORAGE =           0.0000               STORAGE =           0.0000
       CONSTANT HEAD =           0.0000         CONSTANT HEAD =           0.0000
               WELLS =       42000.0000                 WELLS =         500.0000
     HEAD DEP BOUNDS =      413395.2500       HEAD DEP BOUNDS =         937.3372

           TOTAL OUT =      455395.2500             TOTAL OUT =        1437.3372

            IN - OUT =          -1.6562              IN - OUT =      -1.1230E-02

 PERCENT DISCREPANCY =          -0.00     PERCENT DISCREPANCY =          -0.00






         TIME SUMMARY AT END OF TIME STEP   84 IN STRESS PERIOD    3
                    SECONDS     MINUTES      HOURS       DAYS        YEARS
                    -----------------------------------------------------------
   TIME STEP LENGTH  86400.      1440.0      24.000      1.0000     2.73785E-03
 STRESS PERIOD TIME 7.25760E+06 1.20960E+05  2016.0      84.000     0.22998    
         TOTAL TIME 1.59840E+07 2.66400E+05  4440.0      185.00     0.50650    
1
 
 SOLVING FOR HEAD 

 OUTPUT CONTROL FOR STRESS PERIOD    3   TIME STEP   85
    SAVE HEAD FOR ALL LAYERS
    SAVE DRAWDOWN FOR ALL LAYERS
    SAVE BUDGET
    PRINT HEAD FOR ALL LAYERS
    PRINT BUDGET
 UBDSV1 SAVING "         STORAGE" ON UNIT  53 AT TIME STEP 85, STRESS PERIOD   3
 UBDSV2 SAVING "   CONSTANT HEAD" ON UNIT  53 AT TIME STEP 85, STRESS PERIOD   3
 UBDSV1 SAVING "FLOW RIGHT FACE " ON UNIT  53 AT TIME STEP 85, STRESS PERIOD   3
 UBDSV1 SAVING "FLOW FRONT FACE " ON UNIT  53 AT TIME STEP 85, STRESS PERIOD   3
 UBDSV1 SAVING "FLOW LOWER FACE " ON UNIT  53 AT TIME STEP 85, STRESS PERIOD   3
1
              HEAD IN LAYER   1 AT END OF TIME STEP  85 IN STRESS PERIOD    3
  ---------------------------------------------------------------------------

            1           2           3           4           5           6           7           8           9          10
 ........................................................................................................................
   1    9.999       9.458       8.854       8.140       7.289       6.281       5.063       3.599       1.896      2.6964E-03
   2    9.999       9.425       8.781       8.018       7.134       6.155       4.982       3.555       1.877      2.6680E-03
   3    9.998       9.363       8.631       7.744       6.746       5.869       4.817       3.472       1.844      2.6167E-03
   4    9.998       9.287       8.424       7.278       5.866       5.384       4.591       3.374       1.807      2.5606E-03
   5    9.998       9.241       8.268       6.723       2.997       4.800       4.420       3.317       1.788      2.5325E-03
   6    9.998       9.288       8.427       7.282       5.871       5.389       4.594       3.376       1.808      2.5624E-03
   7    9.998       9.368       8.640       7.756       6.760       5.882       4.827       3.479       1.847      2.6216E-03
   8    9.999       9.436       8.801       8.047       7.166       6.184       5.005       3.570       1.884      2.6790E-03
   9    9.999       9.480       8.898       8.203       7.360       6.346       5.112       3.629       1.910      2.7190E-03
  10    9.999       9.501       8.942       8.269       7.439       6.414       5.160       3.658       1.923      2.7385E-03
1
              HEAD IN LAYER   2 AT END OF TIME STEP  85 IN STRESS PERIOD    3
  ---------------------------------------------------------------------------

            1           2           3           4           5           6           7           8           9          10
 ........................................................................................................................
   1    9.999       9.452       8.843       8.125       7.271       6.262       5.046       3.584       1.886      5.1935E-03
   2    9.999       9.419       8.769       8.002       7.116       6.135       4.964       3.540       1.867      5.1419E-03
   3    9.998       9.356       8.618       7.726       6.726       5.849       4.799       3.457       1.834      5.0490E-03
   4    9.998       9.279       8.410       7.258       5.847       5.364       4.572       3.359       1.797      4.9469E-03
   5    9.998       9.234       8.253       6.704       3.428       4.784       4.401       3.302       1.779      4.8961E-03
   6    9.998       9.281       8.413       7.263       5.852       5.368       4.575       3.361       1.798      4.9503E-03
   7    9.998       9.361       8.627       7.739       6.740       5.862       4.809       3.464       1.837      5.0581E-03
   8    9.999       9.430       8.790       8.031       7.148       6.165       4.987       3.556       1.875      5.1622E-03
   9    9.999       9.475       8.888       8.188       7.343       6.328       5.095       3.616       1.901      5.2349E-03
  10    9.999       9.496       8.932       8.255       7.423       6.397       5.144       3.644       1.914      5.2705E-03
1
              HEAD IN LAYER   3 AT END OF TIME STEP  85 IN STRESS PERIOD    3
  ---------------------------------------------------------------------------

            1           2           3           4           5           6           7           8           9          10
 ........................................................................................................................
   1    9.999       9.448       8.835       8.114       7.258       6.248       5.032       3.572       1.878      5.5699E-03
   2    9.999       9.415       8.761       7.990       7.102       6.120       4.950       3.528       1.859      5.5143E-03
   3    9.998       9.351       8.609       7.713       6.711       5.833       4.784       3.445       1.825      5.4143E-03
   4    9.998       9.274       8.400       7.245       5.839       5.347       4.556       3.345       1.788      5.3045E-03
   5    9.998       9.228       8.243       6.696       3.776       4.777       4.386       3.289       1.770      5.2500E-03
   6    9.998       9.276       8.404       7.249       5.844       5.352       4.560       3.348       1.789      5.3082E-03
   7    9.998       9.356       8.618       7.726       6.725       5.846       4.794       3.452       1.829      5.4243E-03
   8    9.999       9.426       8.782       8.020       7.135       6.151       4.974       3.544       1.866      5.5365E-03
   9    9.999       9.471       8.881       8.178       7.331       6.315       5.082       3.604       1.893      5.6150E-03
  10    9.999       9.492       8.925       8.246       7.411       6.385       5.131       3.633       1.906      5.6536E-03
1
              HEAD IN LAYER   4 AT END OF TIME STEP  85 IN STRESS PERIOD    3
  ---------------------------------------------------------------------------

            1           2           3           4           5           6           7           8           9          10
 ........................................................................................................................
   1    9.999       9.446       8.831       8.108       7.251       6.241       5.025       3.566       1.873      5.5995E-03
   2    9.999       9.413       8.756       7.984       7.095       6.113       4.942       3.522       1.855      5.5432E-03
   3    9.998       9.349       8.604       7.707       6.703       5.825       4.776       3.438       1.821      5.4423E-03
   4    9.998       9.272       8.395       7.238       5.837       5.340       4.548       3.339       1.784      5.3316E-03
   5    9.998       9.226       8.238       6.694       3.943       4.776       4.378       3.282       1.765      5.2767E-03
   6    9.998       9.273       8.399       7.243       5.842       5.344       4.552       3.342       1.785      5.3354E-03
   7    9.998       9.354       8.614       7.720       6.718       5.839       4.787       3.445       1.824      5.4525E-03
   8    9.999       9.424       8.778       8.015       7.128       6.144       4.967       3.538       1.862      5.5659E-03
   9    9.999       9.469       8.877       8.173       7.325       6.308       5.076       3.599       1.889      5.6453E-03
  10    9.999       9.491       8.922       8.241       7.405       6.378       5.125       3.628       1.902      5.6843E-03

 HEAD WILL BE SAVED ON UNIT   51 AT END OF TIME STEP   85, STRESS PERIOD    3

 DRAWDOWN WILL BE SAVED ON UNIT   52 AT END OF TIME STEP   85, STRESS PERIOD    3
1
  VOLUMETRIC BUDGET FOR ENTIRE MODEL AT END OF TIME STEP   85, STRESS PERIOD   3
  ------------------------------------------------------------------------------

     CUMULATIVE VOLUMES      L**3       RATES FOR THIS TIME STEP      L**3/T
     ------------------                 ------------------------

           IN:                                      IN:
           ---                                      ---
             STORAGE =      435291.4062               STORAGE =        1063.1531
       CONSTANT HEAD =           0.0000         CONSTANT HEAD =           0.0000
               WELLS =           0.0000                 WELLS =           0.0000
     HEAD DEP BOUNDS =       21536.0117       HEAD DEP BOUNDS =         370.6563

            TOTAL IN =      456827.4062              TOTAL IN =        1433.8093

          OUT:                                     OUT:
          ----                                     ----
             STORAGE =           0.0000               STORAGE =           0.0000
       CONSTANT HEAD =           0.0000         CONSTANT HEAD =           0.0000
               WELLS =       42500.0000                 WELLS =         500.0000
     HEAD DEP BOUNDS =      414329.0625       HEAD DEP BOUNDS =         933.8268

           TOTAL OUT =      456829.0625             TOTAL OUT =        1433.8269

            IN - OUT =          -1.6562              IN - OUT =      -1.7578E-02

 PERCENT DISCREPANCY =          -0.00     PERCENT DISCREPANCY =          -0.00






         TIME SUMMARY AT END OF TIME STEP   85 IN STRESS PERIOD    3
                    SECONDS     MINUTES      HOURS       DAYS        YEARS
                    -----------------------------------------------------------
   TIME STEP LENGTH  86400.      1440.0      24.000      1.0000     2.73785E-03
 STRESS PERIOD TIME 7.34400E+06 1.22400E+05  2040.0      85.000     0.23272    
         TOTAL TIME 1.60704E+07 2.67840E+05  4464.0      186.00     0.50924    
1
 
 SOLVING FOR HEAD 

 OUTPUT CONTROL FOR STRESS PERIOD    3   TIME STEP   86
    SAVE HEAD FOR ALL LAYERS
    SAVE DRAWDOWN FOR ALL LAYERS
    SAVE BUDGET
    PRINT HEAD FOR ALL LAYERS
    PRINT BUDGET
 UBDSV1 SAVING "         STORAGE" ON UNIT  53 AT TIME STEP 86, STRESS PERIOD   3
 UBDSV2 SAVING "   CONSTANT HEAD" ON UNIT  53 AT TIME STEP 86, STRESS PERIOD   3
 UBDSV1 SAVING "FLOW RIGHT FACE " ON UNIT  53 AT TIME STEP 86, STRESS PERIOD   3
 UBDSV1 SAVING "FLOW FRONT FACE " ON UNIT  53 AT TIME STEP 86, STRESS PERIOD   3
 UBDSV1 SAVING "FLOW LOWER FACE " ON UNIT  53 AT TIME STEP 86, STRESS PERIOD   3
1
              HEAD IN LAYER   1 AT END OF TIME STEP  86 IN STRESS PERIOD    3
  ---------------------------------------------------------------------------

            1           2           3           4           5           6           7           8           9          10
 ........................................................................................................................
   1    9.999       9.453       8.844       8.126       7.273       6.264       5.048       3.587       1.889      2.6863E-03
   2    9.999       9.420       8.770       8.004       7.118       6.137       4.966       3.543       1.870      2.6575E-03
   3    9.998       9.357       8.620       7.728       6.728       5.851       4.800       3.460       1.836      2.6059E-03
   4    9.998       9.280       8.412       7.261       5.846       5.365       4.573       3.360       1.799      2.5491E-03
   5    9.998       9.235       8.256       6.706       2.976       4.780       4.402       3.303       1.781      2.5211E-03
   6    9.998       9.282       8.415       7.266       5.851       5.369       4.577       3.363       1.801      2.5510E-03
   7    9.998       9.362       8.629       7.741       6.742       5.864       4.811       3.466       1.840      2.6110E-03
   8    9.999       9.431       8.791       8.033       7.150       6.167       4.989       3.558       1.878      2.6688E-03
   9    9.999       9.476       8.889       8.190       7.345       6.330       5.097       3.618       1.904      2.7094E-03
  10    9.999       9.497       8.933       8.257       7.424       6.399       5.146       3.647       1.917      2.7293E-03
1
              HEAD IN LAYER   2 AT END OF TIME STEP  86 IN STRESS PERIOD    3
  ---------------------------------------------------------------------------

            1           2           3           4           5           6           7           8           9          10
 ........................................................................................................................
   1    9.999       9.447       8.833       8.111       7.255       6.246       5.030       3.573       1.880      5.1754E-03
   2    9.999       9.414       8.758       7.988       7.099       6.118       4.948       3.528       1.861      5.1232E-03
   3    9.998       9.350       8.607       7.711       6.708       5.830       4.782       3.445       1.827      5.0294E-03
   4    9.998       9.273       8.398       7.242       5.828       5.344       4.554       3.345       1.790      4.9264E-03
   5    9.998       9.228       8.241       6.687       3.407       4.764       4.383       3.288       1.771      4.8753E-03
   6    9.998       9.275       8.402       7.247       5.833       5.349       4.558       3.348       1.791      4.9299E-03
   7    9.998       9.355       8.616       7.724       6.722       5.844       4.792       3.452       1.830      5.0388E-03
   8    9.999       9.425       8.780       8.018       7.132       6.149       4.972       3.544       1.868      5.1441E-03
   9    9.999       9.470       8.879       8.176       7.329       6.313       5.081       3.605       1.895      5.2178E-03
  10    9.999       9.492       8.924       8.243       7.409       6.383       5.130       3.634       1.908      5.2541E-03
1
              HEAD IN LAYER   3 AT END OF TIME STEP  86 IN STRESS PERIOD    3
  ---------------------------------------------------------------------------

            1           2           3           4           5           6           7           8           9          10
 ........................................................................................................................
   1    9.999       9.443       8.825       8.100       7.242       6.231       5.016       3.561       1.871      5.5506E-03
   2    9.999       9.410       8.750       7.976       7.085       6.103       4.934       3.516       1.852      5.4943E-03
   3    9.998       9.346       8.598       7.698       6.693       5.815       4.767       3.432       1.818      5.3934E-03
   4    9.998       9.268       8.388       7.228       5.820       5.328       4.539       3.332       1.781      5.2828E-03
   5    9.998       9.222       8.231       6.679       3.755       4.757       4.368       3.275       1.762      5.2280E-03
   6    9.998       9.270       8.392       7.233       5.825       5.333       4.543       3.335       1.782      5.2866E-03
   7    9.998       9.351       8.608       7.711       6.708       5.828       4.778       3.439       1.822      5.4037E-03
   8    9.999       9.421       8.772       8.007       7.119       6.134       4.958       3.532       1.860      5.5172E-03
   9    9.999       9.467       8.872       8.166       7.317       6.300       5.068       3.593       1.887      5.5968E-03
  10    9.999       9.488       8.917       8.234       7.397       6.370       5.118       3.623       1.900      5.6360E-03
1
              HEAD IN LAYER   4 AT END OF TIME STEP  86 IN STRESS PERIOD    3
  ---------------------------------------------------------------------------

            1           2           3           4           5           6           7           8           9          10
 ........................................................................................................................
   1    9.999       9.441       8.821       8.095       7.235       6.224       5.010       3.555       1.867      5.5801E-03
   2    9.999       9.407       8.746       7.970       7.078       6.095       4.927       3.510       1.848      5.5233E-03
   3    9.998       9.343       8.593       7.692       6.685       5.807       4.760       3.426       1.814      5.4214E-03
   4    9.998       9.266       8.384       7.222       5.818       5.320       4.531       3.326       1.776      5.3098E-03
   5    9.998       9.220       8.226       6.677       3.922       4.756       4.360       3.269       1.758      5.2546E-03
   6    9.998       9.267       8.387       7.227       5.823       5.325       4.535       3.328       1.778      5.3137E-03
   7    9.998       9.349       8.603       7.705       6.700       5.821       4.770       3.433       1.817      5.4319E-03
   8    9.999       9.419       8.769       8.001       7.112       6.127       4.952       3.526       1.856      5.5466E-03
   9    9.999       9.465       8.868       8.161       7.310       6.293       5.062       3.588       1.883      5.6271E-03
  10    9.999       9.486       8.914       8.229       7.391       6.364       5.112       3.617       1.896      5.6668E-03

 HEAD WILL BE SAVED ON UNIT   51 AT END OF TIME STEP   86, STRESS PERIOD    3

 DRAWDOWN WILL BE SAVED ON UNIT   52 AT END OF TIME STEP   86, STRESS PERIOD    3
1
  VOLUMETRIC BUDGET FOR ENTIRE MODEL AT END OF TIME STEP   86, STRESS PERIOD   3
  ------------------------------------------------------------------------------

     CUMULATIVE VOLUMES      L**3       RATES FOR THIS TIME STEP      L**3/T
     ------------------                 ------------------------

           IN:                                      IN:
           ---                                      ---
             STORAGE =      436347.8750               STORAGE =        1056.4730
       CONSTANT HEAD =           0.0000         CONSTANT HEAD =           0.0000
               WELLS =           0.0000                 WELLS =           0.0000
     HEAD DEP BOUNDS =       21909.8711       HEAD DEP BOUNDS =         373.8596

            TOTAL IN =      458257.7500              TOTAL IN =        1430.3326

          OUT:                                     OUT:
          ----                                     ----
             STORAGE =           0.0000               STORAGE =           0.0000
       CONSTANT HEAD =           0.0000         CONSTANT HEAD =           0.0000
               WELLS =       43000.0000                 WELLS =         500.0000
     HEAD DEP BOUNDS =      415259.4062       HEAD DEP BOUNDS =         930.3427

           TOTAL OUT =      458259.4062             TOTAL OUT =        1430.3427

            IN - OUT =          -1.6562              IN - OUT =      -1.0010E-02

 PERCENT DISCREPANCY =          -0.00     PERCENT DISCREPANCY =          -0.00






         TIME SUMMARY AT END OF TIME STEP   86 IN STRESS PERIOD    3
                    SECONDS     MINUTES      HOURS       DAYS        YEARS
                    -----------------------------------------------------------
   TIME STEP LENGTH  86400.      1440.0      24.000      1.0000     2.73785E-03
 STRESS PERIOD TIME 7.43040E+06 1.23840E+05  2064.0      86.000     0.23546    
         TOTAL TIME 1.61568E+07 2.69280E+05  4488.0      187.00     0.51198    
1
 
 SOLVING FOR HEAD 

 OUTPUT CONTROL FOR STRESS PERIOD    3   TIME STEP   87
    SAVE HEAD FOR ALL LAYERS
    SAVE DRAWDOWN FOR ALL LAYERS
    SAVE BUDGET
    PRINT HEAD FOR ALL LAYERS
    PRINT BUDGET
 UBDSV1 SAVING "         STORAGE" ON UNIT  53 AT TIME STEP 87, STRESS PERIOD   3
 UBDSV2 SAVING "   CONSTANT HEAD" ON UNIT  53 AT TIME STEP 87, STRESS PERIOD   3
 UBDSV1 SAVING "FLOW RIGHT FACE " ON UNIT  53 AT TIME STEP 87, STRESS PERIOD   3
 UBDSV1 SAVING "FLOW FRONT FACE " ON UNIT  53 AT TIME STEP 87, STRESS PERIOD   3
 UBDSV1 SAVING "FLOW LOWER FACE " ON UNIT  53 AT TIME STEP 87, STRESS PERIOD   3
1
              HEAD IN LAYER   1 AT END OF TIME STEP  87 IN STRESS PERIOD    3
  ---------------------------------------------------------------------------

            1           2           3           4           5           6           7           8           9          10
 ........................................................................................................................
   1    9.999       9.448       8.834       8.113       7.257       6.248       5.032       3.575       1.882      2.6763E-03
   2    9.999       9.415       8.760       7.989       7.101       6.120       4.950       3.530       1.863      2.6472E-03
   3    9.998       9.351       8.609       7.713       6.710       5.832       4.784       3.447       1.829      2.5951E-03
   4    9.998       9.274       8.400       7.245       5.827       5.345       4.555       3.347       1.792      2.5378E-03
   5    9.998       9.229       8.244       6.689       2.955       4.760       4.384       3.290       1.773      2.5096E-03
   6    9.998       9.276       8.404       7.250       5.832       5.350       4.559       3.349       1.793      2.5397E-03
   7    9.998       9.356       8.618       7.726       6.725       5.846       4.794       3.454       1.833      2.6003E-03
   8    9.999       9.426       8.782       8.020       7.134       6.151       4.974       3.546       1.871      2.6587E-03
   9    9.999       9.471       8.880       8.178       7.331       6.315       5.083       3.607       1.898      2.6999E-03
  10    9.999       9.492       8.925       8.245       7.410       6.385       5.133       3.636       1.911      2.7202E-03
1
              HEAD IN LAYER   2 AT END OF TIME STEP  87 IN STRESS PERIOD    3
  ---------------------------------------------------------------------------

            1           2           3           4           5           6           7           8           9          10
 ........................................................................................................................
   1    9.999       9.442       8.823       8.097       7.239       6.229       5.015       3.561       1.873      5.1573E-03
   2    9.999       9.408       8.748       7.973       7.082       6.100       4.932       3.516       1.854      5.1045E-03
   3    9.998       9.345       8.596       7.695       6.690       5.812       4.765       3.432       1.820      5.0099E-03
   4    9.998       9.267       8.387       7.226       5.809       5.324       4.537       3.332       1.782      4.9061E-03
   5    9.998       9.221       8.229       6.671       3.386       4.744       4.365       3.275       1.764      4.8547E-03
   6    9.998       9.269       8.390       7.231       5.814       5.329       4.541       3.334       1.784      4.9097E-03
   7    9.998       9.350       8.606       7.709       6.705       5.826       4.776       3.439       1.823      5.0196E-03
   8    9.999       9.420       8.771       8.004       7.116       6.132       4.957       3.532       1.862      5.1261E-03
   9    9.999       9.466       8.870       8.164       7.314       6.297       5.067       3.594       1.889      5.2009E-03
  10    9.999       9.487       8.915       8.232       7.395       6.368       5.117       3.623       1.902      5.2377E-03
1
              HEAD IN LAYER   3 AT END OF TIME STEP  87 IN STRESS PERIOD    3
  ---------------------------------------------------------------------------

            1           2           3           4           5           6           7           8           9          10
 ........................................................................................................................
   1    9.999       9.438       8.816       8.087       7.226       6.215       5.001       3.549       1.865      5.5314E-03
   2    9.999       9.404       8.740       7.962       7.068       6.086       4.918       3.504       1.845      5.4745E-03
   3    9.998       9.340       8.587       7.683       6.675       5.796       4.750       3.419       1.811      5.3726E-03
   4    9.998       9.262       8.377       7.212       5.801       5.308       4.521       3.319       1.773      5.2612E-03
   5    9.998       9.216       8.219       6.663       3.735       4.737       4.350       3.262       1.755      5.2061E-03
   6    9.998       9.264       8.381       7.217       5.806       5.314       4.525       3.322       1.775      5.2652E-03
   7    9.998       9.345       8.597       7.697       6.690       5.810       4.762       3.427       1.815      5.3833E-03
   8    9.999       9.416       8.763       7.993       7.103       6.118       4.943       3.520       1.853      5.4981E-03
   9    9.999       9.462       8.863       8.154       7.302       6.284       5.054       3.583       1.881      5.5788E-03
  10    9.999       9.484       8.909       8.222       7.383       6.356       5.104       3.612       1.894      5.6186E-03
1
              HEAD IN LAYER   4 AT END OF TIME STEP  87 IN STRESS PERIOD    3
  ---------------------------------------------------------------------------

            1           2           3           4           5           6           7           8           9          10
 ........................................................................................................................
   1    9.999       9.436       8.812       8.081       7.219       6.208       4.994       3.543       1.861      5.5608E-03
   2    9.999       9.402       8.736       7.956       7.061       6.078       4.911       3.498       1.841      5.5034E-03
   3    9.998       9.338       8.583       7.677       6.668       5.789       4.743       3.413       1.807      5.4006E-03
   4    9.998       9.260       8.372       7.206       5.799       5.301       4.514       3.312       1.769      5.2881E-03
   5    9.998       9.214       8.214       6.661       3.902       4.736       4.343       3.255       1.750      5.2326E-03
   6    9.998       9.262       8.376       7.211       5.804       5.306       4.518       3.315       1.770      5.2922E-03
   7    9.998       9.343       8.593       7.690       6.683       5.803       4.754       3.420       1.810      5.4115E-03
   8    9.999       9.414       8.759       7.988       7.097       6.111       4.937       3.514       1.849      5.5274E-03
   9    9.999       9.460       8.860       8.149       7.296       6.278       5.048       3.577       1.877      5.6090E-03
  10    9.999       9.482       8.905       8.218       7.377       6.349       5.098       3.607       1.890      5.6493E-03

 HEAD WILL BE SAVED ON UNIT   51 AT END OF TIME STEP   87, STRESS PERIOD    3

 DRAWDOWN WILL BE SAVED ON UNIT   52 AT END OF TIME STEP   87, STRESS PERIOD    3
1
  VOLUMETRIC BUDGET FOR ENTIRE MODEL AT END OF TIME STEP   87, STRESS PERIOD   3
  ------------------------------------------------------------------------------

     CUMULATIVE VOLUMES      L**3       RATES FOR THIS TIME STEP      L**3/T
     ------------------                 ------------------------

           IN:                                      IN:
           ---                                      ---
             STORAGE =      437397.6875               STORAGE =        1049.8281
       CONSTANT HEAD =           0.0000         CONSTANT HEAD =           0.0000
               WELLS =           0.0000                 WELLS =           0.0000
     HEAD DEP BOUNDS =       22286.9043       HEAD DEP BOUNDS =         377.0325

            TOTAL IN =      459684.5938              TOTAL IN =        1426.8606

          OUT:                                     OUT:
          ----                                     ----
             STORAGE =           0.0000               STORAGE =           0.0000
       CONSTANT HEAD =           0.0000         CONSTANT HEAD =           0.0000
               WELLS =       43500.0000                 WELLS =         500.0000
     HEAD DEP BOUNDS =      416186.2812       HEAD DEP BOUNDS =         926.8786

           TOTAL OUT =      459686.2812             TOTAL OUT =        1426.8787

            IN - OUT =          -1.6875              IN - OUT =      -1.8066E-02

 PERCENT DISCREPANCY =          -0.00     PERCENT DISCREPANCY =          -0.00






         TIME SUMMARY AT END OF TIME STEP   87 IN STRESS PERIOD    3
                    SECONDS     MINUTES      HOURS       DAYS        YEARS
                    -----------------------------------------------------------
   TIME STEP LENGTH  86400.      1440.0      24.000      1.0000     2.73785E-03
 STRESS PERIOD TIME 7.51680E+06 1.25280E+05  2088.0      87.000     0.23819    
         TOTAL TIME 1.62432E+07 2.70720E+05  4512.0      188.00     0.51472    
1
 
 SOLVING FOR HEAD 

 OUTPUT CONTROL FOR STRESS PERIOD    3   TIME STEP   88
    SAVE HEAD FOR ALL LAYERS
    SAVE DRAWDOWN FOR ALL LAYERS
    SAVE BUDGET
    PRINT HEAD FOR ALL LAYERS
    PRINT BUDGET
 UBDSV1 SAVING "         STORAGE" ON UNIT  53 AT TIME STEP 88, STRESS PERIOD   3
 UBDSV2 SAVING "   CONSTANT HEAD" ON UNIT  53 AT TIME STEP 88, STRESS PERIOD   3
 UBDSV1 SAVING "FLOW RIGHT FACE " ON UNIT  53 AT TIME STEP 88, STRESS PERIOD   3
 UBDSV1 SAVING "FLOW FRONT FACE " ON UNIT  53 AT TIME STEP 88, STRESS PERIOD   3
 UBDSV1 SAVING "FLOW LOWER FACE " ON UNIT  53 AT TIME STEP 88, STRESS PERIOD   3
1
              HEAD IN LAYER   1 AT END OF TIME STEP  88 IN STRESS PERIOD    3
  ---------------------------------------------------------------------------

            1           2           3           4           5           6           7           8           9          10
 ........................................................................................................................
   1    9.999       9.443       8.825       8.099       7.241       6.231       5.017       3.563       1.876      2.6661E-03
   2    9.999       9.409       8.750       7.975       7.084       6.102       4.935       3.518       1.857      2.6368E-03
   3    9.998       9.346       8.598       7.698       6.692       5.814       4.767       3.434       1.822      2.5841E-03
   4    9.998       9.268       8.389       7.229       5.808       5.325       4.538       3.334       1.785      2.5266E-03
   5    9.998       9.223       8.232       6.673       2.935       4.740       4.366       3.276       1.766      2.4980E-03
   6    9.998       9.270       8.392       7.234       5.813       5.330       4.542       3.336       1.786      2.5287E-03
   7    9.998       9.351       8.607       7.711       6.707       5.828       4.778       3.441       1.826      2.5897E-03
   8    9.999       9.421       8.772       8.006       7.118       6.134       4.959       3.534       1.864      2.6489E-03
   9    9.999       9.466       8.871       8.165       7.316       6.299       5.069       3.596       1.892      2.6906E-03
  10    9.999       9.488       8.916       8.233       7.397       6.370       5.119       3.626       1.905      2.7110E-03
1
              HEAD IN LAYER   2 AT END OF TIME STEP  88 IN STRESS PERIOD    3
  ---------------------------------------------------------------------------

            1           2           3           4           5           6           7           8           9          10
 ........................................................................................................................
   1    9.999       9.437       8.814       8.084       7.223       6.213       5.000       3.549       1.867      5.1393E-03
   2    9.999       9.403       8.738       7.959       7.065       6.083       4.917       3.504       1.847      5.0860E-03
   3    9.998       9.339       8.585       7.680       6.672       5.794       4.749       3.419       1.813      4.9904E-03
   4    9.998       9.261       8.375       7.210       5.790       5.305       4.519       3.319       1.775      4.8859E-03
   5    9.998       9.215       8.218       6.654       3.365       4.724       4.348       3.261       1.756      4.8342E-03
   6    9.998       9.263       8.379       7.215       5.795       5.310       4.523       3.321       1.776      4.8897E-03
   7    9.998       9.344       8.595       7.694       6.688       5.808       4.760       3.427       1.816      5.0005E-03
   8    9.999       9.415       8.761       7.991       7.101       6.116       4.942       3.521       1.855      5.1082E-03
   9    9.999       9.461       8.861       8.151       7.299       6.282       5.053       3.583       1.883      5.1840E-03
  10    9.999       9.483       8.907       8.220       7.381       6.354       5.104       3.613       1.896      5.2214E-03
1
              HEAD IN LAYER   3 AT END OF TIME STEP  88 IN STRESS PERIOD    3
  ---------------------------------------------------------------------------

            1           2           3           4           5           6           7           8           9          10
 ........................................................................................................................
   1    9.999       9.433       8.806       8.073       7.210       6.198       4.986       3.537       1.858      5.5122E-03
   2    9.999       9.399       8.730       7.948       7.052       6.069       4.903       3.492       1.839      5.4548E-03
   3    9.998       9.334       8.576       7.668       6.657       5.778       4.734       3.407       1.804      5.3520E-03
   4    9.998       9.256       8.365       7.196       5.782       5.289       4.504       3.306       1.766      5.2397E-03
   5    9.998       9.210       8.208       6.646       3.715       4.718       4.333       3.248       1.748      5.1843E-03
   6    9.998       9.258       8.369       7.201       5.788       5.295       4.508       3.309       1.768      5.2439E-03
   7    9.998       9.340       8.587       7.682       6.673       5.793       4.745       3.414       1.808      5.3631E-03
   8    9.999       9.411       8.753       7.980       7.087       6.102       4.929       3.509       1.847      5.4791E-03
   9    9.999       9.457       8.854       8.141       7.287       6.269       5.040       3.572       1.875      5.5609E-03
  10    9.999       9.479       8.900       8.211       7.369       6.341       5.091       3.602       1.888      5.6013E-03
1
              HEAD IN LAYER   4 AT END OF TIME STEP  88 IN STRESS PERIOD    3
  ---------------------------------------------------------------------------

            1           2           3           4           5           6           7           8           9          10
 ........................................................................................................................
   1    9.999       9.431       8.802       8.068       7.204       6.191       4.980       3.531       1.854      5.5416E-03
   2    9.998       9.397       8.726       7.942       7.045       6.061       4.896       3.486       1.835      5.4836E-03
   3    9.998       9.332       8.572       7.662       6.650       5.770       4.727       3.400       1.800      5.3799E-03
   4    9.998       9.254       8.361       7.190       5.780       5.281       4.496       3.299       1.762      5.2666E-03
   5    9.998       9.208       8.203       6.644       3.881       4.716       4.325       3.242       1.743      5.2108E-03
   6    9.998       9.256       8.365       7.195       5.786       5.287       4.501       3.302       1.763      5.2709E-03
   7    9.998       9.338       8.582       7.676       6.666       5.785       4.738       3.408       1.804      5.3912E-03
   8    9.999       9.409       8.749       7.974       7.081       6.095       4.922       3.503       1.843      5.5083E-03
   9    9.999       9.456       8.851       8.136       7.281       6.263       5.034       3.566       1.871      5.5910E-03
  10    9.999       9.478       8.897       8.206       7.364       6.335       5.085       3.596       1.884      5.6319E-03

 HEAD WILL BE SAVED ON UNIT   51 AT END OF TIME STEP   88, STRESS PERIOD    3

 DRAWDOWN WILL BE SAVED ON UNIT   52 AT END OF TIME STEP   88, STRESS PERIOD    3
1
  VOLUMETRIC BUDGET FOR ENTIRE MODEL AT END OF TIME STEP   88, STRESS PERIOD   3
  ------------------------------------------------------------------------------

     CUMULATIVE VOLUMES      L**3       RATES FOR THIS TIME STEP      L**3/T
     ------------------                 ------------------------

           IN:                                      IN:
           ---                                      ---
             STORAGE =      438440.9062               STORAGE =        1043.2280
       CONSTANT HEAD =           0.0000         CONSTANT HEAD =           0.0000
               WELLS =           0.0000                 WELLS =           0.0000
     HEAD DEP BOUNDS =       22667.1074       HEAD DEP BOUNDS =         380.2031

            TOTAL IN =      461108.0000              TOTAL IN =        1423.4312

          OUT:                                     OUT:
          ----                                     ----
             STORAGE =           0.0000               STORAGE =           0.0000
       CONSTANT HEAD =           0.0000         CONSTANT HEAD =           0.0000
               WELLS =       44000.0000                 WELLS =         500.0000
     HEAD DEP BOUNDS =      417109.7188       HEAD DEP BOUNDS =         923.4365

           TOTAL OUT =      461109.7188             TOTAL OUT =        1423.4365

            IN - OUT =          -1.7188              IN - OUT =      -5.3711E-03

 PERCENT DISCREPANCY =          -0.00     PERCENT DISCREPANCY =          -0.00






         TIME SUMMARY AT END OF TIME STEP   88 IN STRESS PERIOD    3
                    SECONDS     MINUTES      HOURS       DAYS        YEARS
                    -----------------------------------------------------------
   TIME STEP LENGTH  86400.      1440.0      24.000      1.0000     2.73785E-03
 STRESS PERIOD TIME 7.60320E+06 1.26720E+05  2112.0      88.000     0.24093    
         TOTAL TIME 1.63296E+07 2.72160E+05  4536.0      189.00     0.51745    
1
 
 SOLVING FOR HEAD 

 OUTPUT CONTROL FOR STRESS PERIOD    3   TIME STEP   89
    SAVE HEAD FOR ALL LAYERS
    SAVE DRAWDOWN FOR ALL LAYERS
    SAVE BUDGET
    PRINT HEAD FOR ALL LAYERS
    PRINT BUDGET
 UBDSV1 SAVING "         STORAGE" ON UNIT  53 AT TIME STEP 89, STRESS PERIOD   3
 UBDSV2 SAVING "   CONSTANT HEAD" ON UNIT  53 AT TIME STEP 89, STRESS PERIOD   3
 UBDSV1 SAVING "FLOW RIGHT FACE " ON UNIT  53 AT TIME STEP 89, STRESS PERIOD   3
 UBDSV1 SAVING "FLOW FRONT FACE " ON UNIT  53 AT TIME STEP 89, STRESS PERIOD   3
 UBDSV1 SAVING "FLOW LOWER FACE " ON UNIT  53 AT TIME STEP 89, STRESS PERIOD   3
1
              HEAD IN LAYER   1 AT END OF TIME STEP  89 IN STRESS PERIOD    3
  ---------------------------------------------------------------------------

            1           2           3           4           5           6           7           8           9          10
 ........................................................................................................................
   1    9.999       9.438       8.815       8.086       7.225       6.215       5.002       3.552       1.869      2.6562E-03
   2    9.999       9.404       8.740       7.961       7.067       6.085       4.919       3.506       1.850      2.6265E-03
   3    9.998       9.340       8.587       7.682       6.674       5.795       4.750       3.421       1.815      2.5734E-03
   4    9.998       9.262       8.377       7.213       5.789       5.306       4.520       3.320       1.777      2.5154E-03
   5    9.998       9.217       8.221       6.656       2.914       4.720       4.348       3.263       1.758      2.4868E-03
   6    9.998       9.264       8.381       7.218       5.794       5.311       4.525       3.323       1.779      2.5175E-03
   7    9.998       9.345       8.597       7.696       6.690       5.810       4.762       3.429       1.819      2.5789E-03
   8    9.999       9.416       8.762       7.993       7.103       6.118       4.944       3.523       1.858      2.6390E-03
   9    9.999       9.462       8.863       8.153       7.301       6.284       5.055       3.585       1.885      2.6811E-03
  10    9.999       9.484       8.908       8.222       7.383       6.356       5.106       3.615       1.899      2.7020E-03
1
              HEAD IN LAYER   2 AT END OF TIME STEP  89 IN STRESS PERIOD    3
  ---------------------------------------------------------------------------

            1           2           3           4           5           6           7           8           9          10
 ........................................................................................................................
   1    9.999       9.432       8.804       8.070       7.207       6.196       4.985       3.538       1.860      5.1215E-03
   2    9.999       9.398       8.728       7.945       7.049       6.066       4.901       3.492       1.841      5.0675E-03
   3    9.998       9.333       8.574       7.665       6.655       5.776       4.732       3.407       1.806      4.9711E-03
   4    9.998       9.255       8.364       7.194       5.771       5.286       4.502       3.305       1.768      4.8658E-03
   5    9.998       9.209       8.206       6.638       3.345       4.704       4.330       3.248       1.749      4.8139E-03
   6    9.998       9.257       8.368       7.199       5.777       5.291       4.506       3.308       1.769      4.8698E-03
   7    9.998       9.339       8.585       7.679       6.670       5.790       4.744       3.414       1.810      4.9816E-03
   8    9.999       9.410       8.751       7.977       7.085       6.099       4.927       3.509       1.849      5.0905E-03
   9    9.999       9.456       8.852       8.139       7.285       6.267       5.039       3.572       1.877      5.1672E-03
  10    9.999       9.478       8.898       8.208       7.367       6.339       5.090       3.602       1.890      5.2052E-03
1
              HEAD IN LAYER   3 AT END OF TIME STEP  89 IN STRESS PERIOD    3
  ---------------------------------------------------------------------------

            1           2           3           4           5           6           7           8           9          10
 ........................................................................................................................
   1    9.999       9.428       8.796       8.060       7.194       6.182       4.971       3.526       1.852      5.4932E-03
   2    9.998       9.394       8.720       7.934       7.035       6.052       4.887       3.480       1.832      5.4352E-03
   3    9.998       9.329       8.565       7.653       6.640       5.760       4.718       3.394       1.797      5.3315E-03
   4    9.998       9.250       8.354       7.180       5.763       5.270       4.487       3.293       1.759      5.2184E-03
   5    9.998       9.204       8.196       6.630       3.694       4.698       4.315       3.235       1.740      5.1627E-03
   6    9.998       9.252       8.358       7.186       5.769       5.276       4.491       3.296       1.761      5.2227E-03
   7    9.998       9.334       8.576       7.667       6.656       5.775       4.729       3.402       1.801      5.3430E-03
   8    9.999       9.406       8.744       7.967       7.072       6.085       4.914       3.497       1.841      5.4602E-03
   9    9.999       9.453       8.845       8.129       7.273       6.254       5.026       3.561       1.869      5.5431E-03
  10    9.999       9.475       8.892       8.199       7.356       6.327       5.078       3.592       1.882      5.5841E-03
1
              HEAD IN LAYER   4 AT END OF TIME STEP  89 IN STRESS PERIOD    3
  ---------------------------------------------------------------------------

            1           2           3           4           5           6           7           8           9          10
 ........................................................................................................................
   1    9.999       9.426       8.792       8.054       7.188       6.175       4.965       3.520       1.848      5.5225E-03
   2    9.998       9.392       8.716       7.928       7.028       6.044       4.880       3.474       1.828      5.4639E-03
   3    9.998       9.327       8.561       7.647       6.633       5.752       4.710       3.388       1.793      5.3593E-03
   4    9.998       9.248       8.349       7.174       5.761       5.262       4.479       3.286       1.755      5.2453E-03
   5    9.998       9.202       8.191       6.628       3.861       4.696       4.308       3.229       1.736      5.1892E-03
   6    9.998       9.250       8.353       7.179       5.767       5.268       4.484       3.289       1.756      5.2497E-03
   7    9.998       9.332       8.572       7.661       6.649       5.768       4.722       3.396       1.797      5.3710E-03
   8    9.999       9.404       8.740       7.961       7.065       6.078       4.907       3.491       1.837      5.4894E-03
   9    9.999       9.451       8.842       8.124       7.267       6.248       5.020       3.555       1.865      5.5732E-03
  10    9.999       9.473       8.888       8.194       7.350       6.320       5.072       3.586       1.879      5.6147E-03

 HEAD WILL BE SAVED ON UNIT   51 AT END OF TIME STEP   89, STRESS PERIOD    3

 DRAWDOWN WILL BE SAVED ON UNIT   52 AT END OF TIME STEP   89, STRESS PERIOD    3
1
  VOLUMETRIC BUDGET FOR ENTIRE MODEL AT END OF TIME STEP   89, STRESS PERIOD   3
  ------------------------------------------------------------------------------

     CUMULATIVE VOLUMES      L**3       RATES FOR THIS TIME STEP      L**3/T
     ------------------                 ------------------------

           IN:                                      IN:
           ---                                      ---
             STORAGE =      439477.5625               STORAGE =        1036.6650
       CONSTANT HEAD =           0.0000         CONSTANT HEAD =           0.0000
               WELLS =           0.0000                 WELLS =           0.0000
     HEAD DEP BOUNDS =       23050.4668       HEAD DEP BOUNDS =         383.3587

            TOTAL IN =      462528.0312              TOTAL IN =        1420.0237

          OUT:                                     OUT:
          ----                                     ----
             STORAGE =           0.0000               STORAGE =           0.0000
       CONSTANT HEAD =           0.0000         CONSTANT HEAD =           0.0000
               WELLS =       44500.0000                 WELLS =         500.0000
     HEAD DEP BOUNDS =      418029.7500       HEAD DEP BOUNDS =         920.0161

           TOTAL OUT =      462529.7500             TOTAL OUT =        1420.0161

            IN - OUT =          -1.7188              IN - OUT =       7.5684E-03

 PERCENT DISCREPANCY =          -0.00     PERCENT DISCREPANCY =           0.00






         TIME SUMMARY AT END OF TIME STEP   89 IN STRESS PERIOD    3
                    SECONDS     MINUTES      HOURS       DAYS        YEARS
                    -----------------------------------------------------------
   TIME STEP LENGTH  86400.      1440.0      24.000      1.0000     2.73785E-03
 STRESS PERIOD TIME 7.68960E+06 1.28160E+05  2136.0      89.000     0.24367    
         TOTAL TIME 1.64160E+07 2.73600E+05  4560.0      190.00     0.52019    
1
 
 SOLVING FOR HEAD 

 OUTPUT CONTROL FOR STRESS PERIOD    3   TIME STEP   90
    SAVE HEAD FOR ALL LAYERS
    SAVE DRAWDOWN FOR ALL LAYERS
    SAVE BUDGET
    PRINT HEAD FOR ALL LAYERS
    PRINT BUDGET
 UBDSV1 SAVING "         STORAGE" ON UNIT  53 AT TIME STEP 90, STRESS PERIOD   3
 UBDSV2 SAVING "   CONSTANT HEAD" ON UNIT  53 AT TIME STEP 90, STRESS PERIOD   3
 UBDSV1 SAVING "FLOW RIGHT FACE " ON UNIT  53 AT TIME STEP 90, STRESS PERIOD   3
 UBDSV1 SAVING "FLOW FRONT FACE " ON UNIT  53 AT TIME STEP 90, STRESS PERIOD   3
 UBDSV1 SAVING "FLOW LOWER FACE " ON UNIT  53 AT TIME STEP 90, STRESS PERIOD   3
1
              HEAD IN LAYER   1 AT END OF TIME STEP  90 IN STRESS PERIOD    3
  ---------------------------------------------------------------------------

            1           2           3           4           5           6           7           8           9          10
 ........................................................................................................................
   1    9.999       9.433       8.805       8.072       7.209       6.198       4.987       3.540       1.863      2.6463E-03
   2    9.999       9.399       8.729       7.947       7.051       6.068       4.903       3.494       1.843      2.6162E-03
   3    9.998       9.335       8.576       7.667       6.657       5.777       4.734       3.409       1.808      2.5627E-03
   4    9.998       9.257       8.366       7.197       5.770       5.287       4.503       3.307       1.770      2.5044E-03
   5    9.998       9.211       8.209       6.640       2.894       4.700       4.331       3.249       1.751      2.4757E-03
   6    9.998       9.259       8.370       7.202       5.776       5.292       4.508       3.310       1.771      2.5066E-03
   7    9.998       9.340       8.586       7.682       6.673       5.792       4.746       3.416       1.812      2.5686E-03
   8    9.999       9.411       8.753       7.979       7.087       6.101       4.929       3.511       1.852      2.6290E-03
   9    9.999       9.457       8.854       8.141       7.287       6.269       5.041       3.575       1.879      2.6718E-03
  10    9.999       9.479       8.900       8.210       7.369       6.341       5.092       3.605       1.893      2.6930E-03
1
              HEAD IN LAYER   2 AT END OF TIME STEP  90 IN STRESS PERIOD    3
  ---------------------------------------------------------------------------

            1           2           3           4           5           6           7           8           9          10
 ........................................................................................................................
   1    9.999       9.427       8.794       8.057       7.192       6.180       4.970       3.526       1.854      5.1037E-03
   2    9.998       9.393       8.718       7.931       7.032       6.049       4.886       3.480       1.834      5.0492E-03
   3    9.998       9.328       8.563       7.650       6.637       5.757       4.716       3.394       1.799      4.9520E-03
   4    9.998       9.249       8.352       7.178       5.752       5.267       4.485       3.292       1.761      4.8459E-03
   5    9.998       9.203       8.195       6.621       3.325       4.685       4.313       3.235       1.742      4.7938E-03
   6    9.998       9.251       8.356       7.184       5.758       5.272       4.489       3.295       1.762      4.8500E-03
   7    9.998       9.333       8.574       7.665       6.653       5.773       4.728       3.402       1.803      4.9628E-03
   8    9.999       9.405       8.742       7.964       7.069       6.083       4.913       3.498       1.843      5.0728E-03
   9    9.999       9.452       8.844       8.127       7.271       6.252       5.025       3.561       1.871      5.1506E-03
  10    9.999       9.474       8.890       8.197       7.353       6.325       5.077       3.592       1.885      5.1891E-03
1
              HEAD IN LAYER   3 AT END OF TIME STEP  90 IN STRESS PERIOD    3
  ---------------------------------------------------------------------------

            1           2           3           4           5           6           7           8           9          10
 ........................................................................................................................
   1    9.999       9.423       8.786       8.046       7.179       6.166       4.957       3.514       1.845      5.4743E-03
   2    9.998       9.388       8.710       7.920       7.019       6.035       4.872       3.468       1.826      5.4157E-03
   3    9.998       9.323       8.555       7.638       6.622       5.742       4.701       3.382       1.790      5.3111E-03
   4    9.998       9.244       8.343       7.165       5.744       5.251       4.470       3.280       1.752      5.1972E-03
   5    9.998       9.198       8.185       6.614       3.674       4.678       4.298       3.222       1.733      5.1413E-03
   6    9.998       9.247       8.347       7.170       5.751       5.257       4.474       3.283       1.753      5.2017E-03
   7    9.998       9.329       8.566       7.653       6.639       5.758       4.714       3.390       1.794      5.3230E-03
   8    9.999       9.401       8.734       7.953       7.056       6.069       4.899       3.486       1.834      5.4414E-03
   9    9.999       9.448       8.837       8.117       7.259       6.239       5.013       3.550       1.863      5.5254E-03
  10    9.999       9.471       8.883       8.187       7.342       6.312       5.065       3.581       1.877      5.5670E-03
1
              HEAD IN LAYER   4 AT END OF TIME STEP  90 IN STRESS PERIOD    3
  ---------------------------------------------------------------------------

            1           2           3           4           5           6           7           8           9          10
 ........................................................................................................................
   1    9.999       9.421       8.783       8.041       7.172       6.159       4.950       3.509       1.841      5.5035E-03
   2    9.998       9.386       8.706       7.914       7.012       6.027       4.865       3.462       1.822      5.4444E-03
   3    9.998       9.321       8.550       7.632       6.615       5.735       4.694       3.376       1.786      5.3389E-03
   4    9.998       9.242       8.338       7.158       5.742       5.244       4.462       3.274       1.748      5.2240E-03
   5    9.998       9.196       8.180       6.612       3.842       4.677       4.291       3.216       1.729      5.1677E-03
   6    9.998       9.244       8.342       7.164       5.749       5.249       4.467       3.277       1.749      5.2286E-03
   7    9.998       9.327       8.561       7.647       6.632       5.750       4.706       3.384       1.790      5.3510E-03
   8    9.999       9.399       8.730       7.948       7.050       6.062       4.892       3.480       1.830      5.4706E-03
   9    9.999       9.446       8.833       8.112       7.253       6.233       5.006       3.545       1.859      5.5554E-03
  10    9.999       9.469       8.880       8.183       7.336       6.306       5.058       3.576       1.873      5.5975E-03

 HEAD WILL BE SAVED ON UNIT   51 AT END OF TIME STEP   90, STRESS PERIOD    3

 DRAWDOWN WILL BE SAVED ON UNIT   52 AT END OF TIME STEP   90, STRESS PERIOD    3
1
  VOLUMETRIC BUDGET FOR ENTIRE MODEL AT END OF TIME STEP   90, STRESS PERIOD   3
  ------------------------------------------------------------------------------

     CUMULATIVE VOLUMES      L**3       RATES FOR THIS TIME STEP      L**3/T
     ------------------                 ------------------------

           IN:                                      IN:
           ---                                      ---
             STORAGE =      440507.6875               STORAGE =        1030.1384
       CONSTANT HEAD =           0.0000         CONSTANT HEAD =           0.0000
               WELLS =           0.0000                 WELLS =           0.0000
     HEAD DEP BOUNDS =       23436.9336       HEAD DEP BOUNDS =         386.4673

            TOTAL IN =      463944.6250              TOTAL IN =        1416.6057

          OUT:                                     OUT:
          ----                                     ----
             STORAGE =           0.0000               STORAGE =           0.0000
       CONSTANT HEAD =           0.0000         CONSTANT HEAD =           0.0000
               WELLS =       45000.0000                 WELLS =         500.0000
     HEAD DEP BOUNDS =      418946.3750       HEAD DEP BOUNDS =         916.6196

           TOTAL OUT =      463946.3750             TOTAL OUT =        1416.6196

            IN - OUT =          -1.7500              IN - OUT =      -1.3916E-02

 PERCENT DISCREPANCY =          -0.00     PERCENT DISCREPANCY =          -0.00






         TIME SUMMARY AT END OF TIME STEP   90 IN STRESS PERIOD    3
                    SECONDS     MINUTES      HOURS       DAYS        YEARS
                    -----------------------------------------------------------
   TIME STEP LENGTH  86400.      1440.0      24.000      1.0000     2.73785E-03
 STRESS PERIOD TIME 7.77600E+06 1.29600E+05  2160.0      90.000     0.24641    
         TOTAL TIME 1.65024E+07 2.75040E+05  4584.0      191.00     0.52293    
1
 
 SOLVING FOR HEAD 

 OUTPUT CONTROL FOR STRESS PERIOD    3   TIME STEP   91
    SAVE HEAD FOR ALL LAYERS
    SAVE DRAWDOWN FOR ALL LAYERS
    SAVE BUDGET
    PRINT HEAD FOR ALL LAYERS
    PRINT BUDGET
 UBDSV1 SAVING "         STORAGE" ON UNIT  53 AT TIME STEP 91, STRESS PERIOD   3
 UBDSV2 SAVING "   CONSTANT HEAD" ON UNIT  53 AT TIME STEP 91, STRESS PERIOD   3
 UBDSV1 SAVING "FLOW RIGHT FACE " ON UNIT  53 AT TIME STEP 91, STRESS PERIOD   3
 UBDSV1 SAVING "FLOW FRONT FACE " ON UNIT  53 AT TIME STEP 91, STRESS PERIOD   3
 UBDSV1 SAVING "FLOW LOWER FACE " ON UNIT  53 AT TIME STEP 91, STRESS PERIOD   3
1
              HEAD IN LAYER   1 AT END OF TIME STEP  91 IN STRESS PERIOD    3
  ---------------------------------------------------------------------------

            1           2           3           4           5           6           7           8           9          10
 ........................................................................................................................
   1    9.999       9.428       8.795       8.059       7.194       6.182       4.972       3.528       1.856      2.6364E-03
   2    9.999       9.394       8.719       7.933       7.034       6.051       4.888       3.482       1.837      2.6061E-03
   3    9.998       9.329       8.565       7.653       6.639       5.759       4.718       3.396       1.801      2.5521E-03
   4    9.998       9.251       8.355       7.181       5.751       5.268       4.486       3.294       1.763      2.4933E-03
   5    9.998       9.205       8.197       6.624       2.874       4.680       4.313       3.236       1.744      2.4645E-03
   6    9.998       9.253       8.359       7.186       5.757       5.273       4.491       3.297       1.764      2.4956E-03
   7    9.998       9.335       8.576       7.667       6.655       5.774       4.730       3.404       1.805      2.5581E-03
   8    9.999       9.406       8.743       7.966       7.071       6.085       4.915       3.500       1.845      2.6193E-03
   9    9.999       9.453       8.845       8.128       7.272       6.254       5.028       3.564       1.873      2.6626E-03
  10    9.999       9.475       8.891       8.198       7.355       6.327       5.079       3.595       1.887      2.6841E-03
1
              HEAD IN LAYER   2 AT END OF TIME STEP  91 IN STRESS PERIOD    3
  ---------------------------------------------------------------------------

            1           2           3           4           5           6           7           8           9          10
 ........................................................................................................................
   1    9.999       9.422       8.784       8.044       7.176       6.164       4.955       3.515       1.847      5.0860E-03
   2    9.998       9.387       8.708       7.917       7.016       6.032       4.870       3.468       1.827      5.0310E-03
   3    9.998       9.322       8.553       7.635       6.620       5.740       4.700       3.382       1.792      4.9329E-03
   4    9.998       9.244       8.341       7.162       5.734       5.248       4.468       3.280       1.753      4.8262E-03
   5    9.998       9.197       8.183       6.605       3.304       4.665       4.295       3.221       1.734      4.7737E-03
   6    9.998       9.246       8.345       7.168       5.740       5.254       4.472       3.283       1.755      4.8304E-03
   7    9.998       9.328       8.564       7.650       6.636       5.755       4.712       3.390       1.796      4.9441E-03
   8    9.999       9.400       8.732       7.951       7.054       6.067       4.898       3.486       1.836      5.0553E-03
   9    9.999       9.447       8.835       8.115       7.256       6.237       5.012       3.551       1.865      5.1340E-03
  10    9.999       9.470       8.882       8.185       7.339       6.310       5.064       3.582       1.879      5.1731E-03
1
              HEAD IN LAYER   3 AT END OF TIME STEP  91 IN STRESS PERIOD    3
  ---------------------------------------------------------------------------

            1           2           3           4           5           6           7           8           9          10
 ........................................................................................................................
   1    9.999       9.418       8.777       8.033       7.163       6.150       4.942       3.503       1.839      5.4555E-03
   2    9.998       9.383       8.700       7.906       7.002       6.018       4.857       3.456       1.819      5.3963E-03
   3    9.998       9.318       8.544       7.623       6.605       5.724       4.685       3.369       1.784      5.2909E-03
   4    9.998       9.239       8.332       7.149       5.726       5.232       4.453       3.267       1.745      5.1762E-03
   5    9.998       9.192       8.173       6.598       3.654       4.659       4.281       3.209       1.726      5.1200E-03
   6    9.998       9.241       8.336       7.155       5.732       5.238       4.458       3.270       1.746      5.1809E-03
   7    9.998       9.324       8.555       7.638       6.622       5.740       4.698       3.378       1.788      5.3031E-03
   8    9.998       9.396       8.725       7.940       7.041       6.053       4.884       3.475       1.828      5.4228E-03
   9    9.999       9.444       8.828       8.105       7.244       6.224       4.999       3.540       1.857      5.5077E-03
  10    9.999       9.466       8.875       8.176       7.328       6.298       5.051       3.571       1.871      5.5500E-03
1
              HEAD IN LAYER   4 AT END OF TIME STEP  91 IN STRESS PERIOD    3
  ---------------------------------------------------------------------------

            1           2           3           4           5           6           7           8           9          10
 ........................................................................................................................
   1    9.999       9.416       8.773       8.027       7.156       6.143       4.935       3.497       1.835      5.4846E-03
   2    9.998       9.381       8.696       7.900       6.996       6.011       4.850       3.450       1.815      5.4249E-03
   3    9.998       9.315       8.540       7.617       6.598       5.717       4.678       3.363       1.779      5.3186E-03
   4    9.998       9.236       8.327       7.143       5.724       5.225       4.446       3.261       1.741      5.2030E-03
   5    9.998       9.190       8.168       6.596       3.822       4.658       4.274       3.203       1.722      5.1464E-03
   6    9.998       9.238       8.331       7.148       5.730       5.231       4.450       3.264       1.742      5.2078E-03
   7    9.998       9.321       8.551       7.632       6.615       5.733       4.691       3.372       1.784      5.3311E-03
   8    9.998       9.394       8.721       7.935       7.034       6.046       4.878       3.469       1.824      5.4519E-03
   9    9.999       9.442       8.824       8.100       7.238       6.218       4.993       3.534       1.853      5.5377E-03
  10    9.999       9.465       8.872       8.171       7.322       6.292       5.045       3.566       1.867      5.5804E-03

 HEAD WILL BE SAVED ON UNIT   51 AT END OF TIME STEP   91, STRESS PERIOD    3

 DRAWDOWN WILL BE SAVED ON UNIT   52 AT END OF TIME STEP   91, STRESS PERIOD    3
1
  VOLUMETRIC BUDGET FOR ENTIRE MODEL AT END OF TIME STEP   91, STRESS PERIOD   3
  ------------------------------------------------------------------------------

     CUMULATIVE VOLUMES      L**3       RATES FOR THIS TIME STEP      L**3/T
     ------------------                 ------------------------

           IN:                                      IN:
           ---                                      ---
             STORAGE =      441531.3438               STORAGE =        1023.6539
       CONSTANT HEAD =           0.0000         CONSTANT HEAD =           0.0000
               WELLS =           0.0000                 WELLS =           0.0000
     HEAD DEP BOUNDS =       23826.5176       HEAD DEP BOUNDS =         389.5833

            TOTAL IN =      465357.8750              TOTAL IN =        1413.2371

          OUT:                                     OUT:
          ----                                     ----
             STORAGE =           0.0000               STORAGE =           0.0000
       CONSTANT HEAD =           0.0000         CONSTANT HEAD =           0.0000
               WELLS =       45500.0000                 WELLS =         500.0000
     HEAD DEP BOUNDS =      419859.6250       HEAD DEP BOUNDS =         913.2440

           TOTAL OUT =      465359.6250             TOTAL OUT =        1413.2440

            IN - OUT =          -1.7500              IN - OUT =      -6.9580E-03

 PERCENT DISCREPANCY =          -0.00     PERCENT DISCREPANCY =          -0.00






         TIME SUMMARY AT END OF TIME STEP   91 IN STRESS PERIOD    3
                    SECONDS     MINUTES      HOURS       DAYS        YEARS
                    -----------------------------------------------------------
   TIME STEP LENGTH  86400.      1440.0      24.000      1.0000     2.73785E-03
 STRESS PERIOD TIME 7.86240E+06 1.31040E+05  2184.0      91.000     0.24914    
         TOTAL TIME 1.65888E+07 2.76480E+05  4608.0      192.00     0.52567    
1
 
 SOLVING FOR HEAD 

 OUTPUT CONTROL FOR STRESS PERIOD    3   TIME STEP   92
    SAVE HEAD FOR ALL LAYERS
    SAVE DRAWDOWN FOR ALL LAYERS
    SAVE BUDGET
    PRINT HEAD FOR ALL LAYERS
    PRINT BUDGET
 UBDSV1 SAVING "         STORAGE" ON UNIT  53 AT TIME STEP 92, STRESS PERIOD   3
 UBDSV2 SAVING "   CONSTANT HEAD" ON UNIT  53 AT TIME STEP 92, STRESS PERIOD   3
 UBDSV1 SAVING "FLOW RIGHT FACE " ON UNIT  53 AT TIME STEP 92, STRESS PERIOD   3
 UBDSV1 SAVING "FLOW FRONT FACE " ON UNIT  53 AT TIME STEP 92, STRESS PERIOD   3
 UBDSV1 SAVING "FLOW LOWER FACE " ON UNIT  53 AT TIME STEP 92, STRESS PERIOD   3
1
              HEAD IN LAYER   1 AT END OF TIME STEP  92 IN STRESS PERIOD    3
  ---------------------------------------------------------------------------

            1           2           3           4           5           6           7           8           9          10
 ........................................................................................................................
   1    9.999       9.423       8.786       8.045       7.178       6.166       4.957       3.517       1.850      2.6266E-03
   2    9.999       9.388       8.709       7.919       7.018       6.034       4.872       3.471       1.830      2.5961E-03
   3    9.998       9.323       8.554       7.638       6.622       5.741       4.702       3.384       1.794      2.5416E-03
   4    9.998       9.245       8.343       7.165       5.733       5.249       4.469       3.281       1.756      2.4825E-03
   5    9.998       9.199       8.186       6.608       2.854       4.661       4.296       3.223       1.737      2.4534E-03
   6    9.998       9.247       8.347       7.171       5.739       5.255       4.474       3.284       1.757      2.4849E-03
   7    9.998       9.329       8.565       7.653       6.638       5.757       4.714       3.392       1.798      2.5478E-03
   8    9.999       9.401       8.734       7.953       7.056       6.069       4.900       3.488       1.839      2.6095E-03
   9    9.999       9.448       8.836       8.116       7.258       6.239       5.014       3.553       1.867      2.6535E-03
  10    9.999       9.471       8.883       8.187       7.341       6.312       5.066       3.584       1.882      2.6751E-03
1
              HEAD IN LAYER   2 AT END OF TIME STEP  92 IN STRESS PERIOD    3
  ---------------------------------------------------------------------------

            1           2           3           4           5           6           7           8           9          10
 ........................................................................................................................
   1    9.999       9.417       8.775       8.030       7.160       6.147       4.941       3.503       1.841      5.0684E-03
   2    9.998       9.382       8.698       7.903       7.000       6.015       4.855       3.457       1.821      5.0129E-03
   3    9.998       9.317       8.542       7.621       6.602       5.722       4.684       3.369       1.785      4.9140E-03
   4    9.998       9.238       8.330       7.147       5.715       5.229       4.451       3.267       1.746      4.8066E-03
   5    9.998       9.192       8.172       6.589       3.284       4.646       4.278       3.208       1.727      4.7539E-03
   6    9.998       9.240       8.334       7.153       5.721       5.235       4.456       3.270       1.748      4.8110E-03
   7    9.998       9.323       8.553       7.636       6.619       5.738       4.696       3.378       1.789      4.9256E-03
   8    9.998       9.395       8.723       7.938       7.038       6.051       4.883       3.475       1.830      5.0378E-03
   9    9.999       9.443       8.826       8.102       7.242       6.222       4.998       3.540       1.859      5.1176E-03
  10    9.999       9.465       8.873       8.173       7.326       6.296       5.051       3.572       1.873      5.1572E-03
1
              HEAD IN LAYER   3 AT END OF TIME STEP  92 IN STRESS PERIOD    3
  ---------------------------------------------------------------------------

            1           2           3           4           5           6           7           8           9          10
 ........................................................................................................................
   1    9.999       9.413       8.767       8.020       7.147       6.133       4.927       3.492       1.833      5.4367E-03
   2    9.998       9.378       8.690       7.892       6.986       6.001       4.841       3.445       1.813      5.3770E-03
   3    9.998       9.312       8.533       7.608       6.588       5.707       4.669       3.357       1.777      5.2708E-03
   4    9.998       9.233       8.321       7.134       5.708       5.214       4.436       3.254       1.738      5.1554E-03
   5    9.998       9.187       8.162       6.582       3.635       4.640       4.264       3.196       1.719      5.0989E-03
   6    9.998       9.235       8.325       7.139       5.714       5.220       4.441       3.258       1.739      5.1602E-03
   7    9.998       9.318       8.545       7.624       6.605       5.723       4.682       3.366       1.781      5.2834E-03
   8    9.998       9.391       8.715       7.927       7.025       6.037       4.870       3.463       1.822      5.4043E-03
   9    9.999       9.439       8.819       8.093       7.230       6.209       4.985       3.529       1.851      5.4902E-03
  10    9.999       9.462       8.867       8.164       7.314       6.284       5.038       3.561       1.865      5.5330E-03
1
              HEAD IN LAYER   4 AT END OF TIME STEP  92 IN STRESS PERIOD    3
  ---------------------------------------------------------------------------

            1           2           3           4           5           6           7           8           9          10
 ........................................................................................................................
   1    9.999       9.411       8.763       8.014       7.141       6.127       4.920       3.486       1.829      5.4658E-03
   2    9.998       9.376       8.686       7.886       6.979       5.994       4.834       3.439       1.809      5.4056E-03
   3    9.998       9.310       8.529       7.602       6.581       5.699       4.662       3.351       1.773      5.2984E-03
   4    9.998       9.230       8.316       7.127       5.706       5.206       4.429       3.248       1.734      5.1821E-03
   5    9.998       9.184       8.157       6.580       3.802       4.639       4.257       3.190       1.715      5.1252E-03
   6    9.998       9.233       8.320       7.133       5.712       5.212       4.434       3.251       1.735      5.1870E-03
   7    9.998       9.316       8.541       7.618       6.598       5.715       4.675       3.360       1.777      5.3113E-03
   8    9.998       9.389       8.711       7.922       7.019       6.030       4.863       3.458       1.818      5.4333E-03
   9    9.999       9.437       8.816       8.088       7.224       6.203       4.979       3.524       1.847      5.5202E-03
  10    9.999       9.460       8.863       8.160       7.309       6.278       5.032       3.555       1.861      5.5634E-03

 HEAD WILL BE SAVED ON UNIT   51 AT END OF TIME STEP   92, STRESS PERIOD    3

 DRAWDOWN WILL BE SAVED ON UNIT   52 AT END OF TIME STEP   92, STRESS PERIOD    3
1
  VOLUMETRIC BUDGET FOR ENTIRE MODEL AT END OF TIME STEP   92, STRESS PERIOD   3
  ------------------------------------------------------------------------------

     CUMULATIVE VOLUMES      L**3       RATES FOR THIS TIME STEP      L**3/T
     ------------------                 ------------------------

           IN:                                      IN:
           ---                                      ---
             STORAGE =      442548.5625               STORAGE =        1017.2162
       CONSTANT HEAD =           0.0000         CONSTANT HEAD =           0.0000
               WELLS =           0.0000                 WELLS =           0.0000
     HEAD DEP BOUNDS =       24219.2031       HEAD DEP BOUNDS =         392.6862

            TOTAL IN =      466767.7500              TOTAL IN =        1409.9023

          OUT:                                     OUT:
          ----                                     ----
             STORAGE =           0.0000               STORAGE =           0.0000
       CONSTANT HEAD =           0.0000         CONSTANT HEAD =           0.0000
               WELLS =       46000.0000                 WELLS =         500.0000
     HEAD DEP BOUNDS =      420769.5312       HEAD DEP BOUNDS =         909.8914

           TOTAL OUT =      466769.5312             TOTAL OUT =        1409.8914

            IN - OUT =          -1.7812              IN - OUT =       1.0986E-02

 PERCENT DISCREPANCY =          -0.00     PERCENT DISCREPANCY =           0.00






         TIME SUMMARY AT END OF TIME STEP   92 IN STRESS PERIOD    3
                    SECONDS     MINUTES      HOURS       DAYS        YEARS
                    -----------------------------------------------------------
   TIME STEP LENGTH  86400.      1440.0      24.000      1.0000     2.73785E-03
 STRESS PERIOD TIME 7.94880E+06 1.32480E+05  2208.0      92.000     0.25188    
         TOTAL TIME 1.66752E+07 2.77920E+05  4632.0      193.00     0.52841    
1
 
 SOLVING FOR HEAD 

 OUTPUT CONTROL FOR STRESS PERIOD    3   TIME STEP   93
    SAVE HEAD FOR ALL LAYERS
    SAVE DRAWDOWN FOR ALL LAYERS
    SAVE BUDGET
    PRINT HEAD FOR ALL LAYERS
    PRINT BUDGET
 UBDSV1 SAVING "         STORAGE" ON UNIT  53 AT TIME STEP 93, STRESS PERIOD   3
 UBDSV2 SAVING "   CONSTANT HEAD" ON UNIT  53 AT TIME STEP 93, STRESS PERIOD   3
 UBDSV1 SAVING "FLOW RIGHT FACE " ON UNIT  53 AT TIME STEP 93, STRESS PERIOD   3
 UBDSV1 SAVING "FLOW FRONT FACE " ON UNIT  53 AT TIME STEP 93, STRESS PERIOD   3
 UBDSV1 SAVING "FLOW LOWER FACE " ON UNIT  53 AT TIME STEP 93, STRESS PERIOD   3
1
              HEAD IN LAYER   1 AT END OF TIME STEP  93 IN STRESS PERIOD    3
  ---------------------------------------------------------------------------

            1           2           3           4           5           6           7           8           9          10
 ........................................................................................................................
   1    9.999       9.418       8.776       8.032       7.162       6.149       4.943       3.506       1.844      2.6168E-03
   2    9.998       9.383       8.699       7.905       7.002       6.017       4.857       3.459       1.823      2.5860E-03
   3    9.998       9.318       8.544       7.623       6.604       5.724       4.685       3.371       1.788      2.5313E-03
   4    9.998       9.239       8.332       7.150       5.714       5.230       4.452       3.268       1.749      2.4717E-03
   5    9.998       9.193       8.175       6.592       2.834       4.642       4.279       3.210       1.729      2.4427E-03
   6    9.998       9.241       8.336       7.155       5.721       5.236       4.457       3.272       1.750      2.4742E-03
   7    9.998       9.324       8.555       7.638       6.622       5.739       4.698       3.380       1.792      2.5376E-03
   8    9.999       9.396       8.724       7.940       7.040       6.053       4.885       3.477       1.833      2.5999E-03
   9    9.999       9.444       8.827       8.104       7.244       6.224       5.000       3.542       1.861      2.6442E-03
  10    9.999       9.466       8.875       8.175       7.328       6.298       5.053       3.574       1.876      2.6663E-03
1
              HEAD IN LAYER   2 AT END OF TIME STEP  93 IN STRESS PERIOD    3
  ---------------------------------------------------------------------------

            1           2           3           4           5           6           7           8           9          10
 ........................................................................................................................
   1    9.999       9.412       8.765       8.017       7.145       6.131       4.926       3.492       1.835      5.0508E-03
   2    9.998       9.377       8.688       7.890       6.984       5.999       4.840       3.445       1.814      4.9949E-03
   3    9.998       9.311       8.532       7.606       6.585       5.704       4.668       3.357       1.778      4.8953E-03
   4    9.998       9.232       8.319       7.131       5.697       5.210       4.434       3.254       1.739      4.7871E-03
   5    9.998       9.186       8.161       6.574       3.265       4.627       4.261       3.196       1.720      4.7342E-03
   6    9.998       9.234       8.323       7.137       5.703       5.217       4.439       3.257       1.741      4.7917E-03
   7    9.998       9.317       8.543       7.622       6.603       5.720       4.681       3.366       1.783      4.9072E-03
   8    9.998       9.390       8.713       7.925       7.023       6.035       4.869       3.464       1.824      5.0205E-03
   9    9.999       9.438       8.817       8.090       7.228       6.207       4.984       3.530       1.853      5.1012E-03
  10    9.999       9.461       8.865       8.162       7.312       6.282       5.038       3.561       1.867      5.1413E-03
1
              HEAD IN LAYER   3 AT END OF TIME STEP  93 IN STRESS PERIOD    3
  ---------------------------------------------------------------------------

            1           2           3           4           5           6           7           8           9          10
 ........................................................................................................................
   1    9.999       9.408       8.758       8.006       7.132       6.117       4.912       3.480       1.827      5.4181E-03
   2    9.998       9.373       8.680       7.878       6.970       5.984       4.826       3.433       1.806      5.3579E-03
   3    9.998       9.307       8.523       7.594       6.571       5.689       4.653       3.345       1.770      5.2508E-03
   4    9.998       9.227       8.310       7.118       5.689       5.195       4.420       3.242       1.731      5.1347E-03
   5    9.998       9.181       8.151       6.566       3.615       4.621       4.247       3.183       1.712      5.0780E-03
   6    9.998       9.230       8.314       7.124       5.696       5.201       4.425       3.245       1.733      5.1397E-03
   7    9.998       9.313       8.535       7.610       6.589       5.706       4.667       3.354       1.774      5.2639E-03
   8    9.998       9.386       8.706       7.914       7.010       6.022       4.855       3.452       1.816      5.3859E-03
   9    9.999       9.435       8.811       8.081       7.216       6.195       4.972       3.519       1.845      5.4728E-03
  10    9.999       9.458       8.859       8.153       7.301       6.270       5.025       3.551       1.860      5.5162E-03
1
              HEAD IN LAYER   4 AT END OF TIME STEP  93 IN STRESS PERIOD    3
  ---------------------------------------------------------------------------

            1           2           3           4           5           6           7           8           9          10
 ........................................................................................................................
   1    9.999       9.406       8.754       8.001       7.125       6.110       4.906       3.475       1.822      5.4471E-03
   2    9.998       9.371       8.676       7.873       6.963       5.977       4.819       3.427       1.802      5.3864E-03
   3    9.998       9.304       8.519       7.588       6.564       5.682       4.646       3.339       1.766      5.2784E-03
   4    9.998       9.225       8.305       7.112       5.688       5.188       4.412       3.235       1.727      5.1613E-03
   5    9.998       9.178       8.146       6.564       3.783       4.620       4.240       3.177       1.708      5.1042E-03
   6    9.998       9.227       8.309       7.118       5.694       5.194       4.418       3.239       1.728      5.1664E-03
   7    9.998       9.311       8.531       7.604       6.582       5.698       4.660       3.348       1.770      5.2917E-03
   8    9.998       9.384       8.702       7.909       7.004       6.015       4.849       3.447       1.812      5.4148E-03
   9    9.999       9.433       8.807       8.076       7.210       6.188       4.965       3.513       1.841      5.5027E-03
  10    9.999       9.456       8.855       8.148       7.295       6.263       5.019       3.545       1.856      5.5465E-03

 HEAD WILL BE SAVED ON UNIT   51 AT END OF TIME STEP   93, STRESS PERIOD    3

 DRAWDOWN WILL BE SAVED ON UNIT   52 AT END OF TIME STEP   93, STRESS PERIOD    3
1
  VOLUMETRIC BUDGET FOR ENTIRE MODEL AT END OF TIME STEP   93, STRESS PERIOD   3
  ------------------------------------------------------------------------------

     CUMULATIVE VOLUMES      L**3       RATES FOR THIS TIME STEP      L**3/T
     ------------------                 ------------------------

           IN:                                      IN:
           ---                                      ---
             STORAGE =      443559.3750               STORAGE =        1010.8057
       CONSTANT HEAD =           0.0000         CONSTANT HEAD =           0.0000
               WELLS =           0.0000                 WELLS =           0.0000
     HEAD DEP BOUNDS =       24614.9609       HEAD DEP BOUNDS =         395.7587

            TOTAL IN =      468174.3438              TOTAL IN =        1406.5643

          OUT:                                     OUT:
          ----                                     ----
             STORAGE =           0.0000               STORAGE =           0.0000
       CONSTANT HEAD =           0.0000         CONSTANT HEAD =           0.0000
               WELLS =       46500.0000                 WELLS =         500.0000
     HEAD DEP BOUNDS =      421676.0938       HEAD DEP BOUNDS =         906.5604

           TOTAL OUT =      468176.0938             TOTAL OUT =        1406.5604

            IN - OUT =          -1.7500              IN - OUT =       3.9062E-03

 PERCENT DISCREPANCY =          -0.00     PERCENT DISCREPANCY =           0.00






         TIME SUMMARY AT END OF TIME STEP   93 IN STRESS PERIOD    3
                    SECONDS     MINUTES      HOURS       DAYS        YEARS
                    -----------------------------------------------------------
   TIME STEP LENGTH  86400.      1440.0      24.000      1.0000     2.73785E-03
 STRESS PERIOD TIME 8.03520E+06 1.33920E+05  2232.0      93.000     0.25462    
         TOTAL TIME 1.67616E+07 2.79360E+05  4656.0      194.00     0.53114    
1
 
 SOLVING FOR HEAD 

 OUTPUT CONTROL FOR STRESS PERIOD    3   TIME STEP   94
    SAVE HEAD FOR ALL LAYERS
    SAVE DRAWDOWN FOR ALL LAYERS
    SAVE BUDGET
    PRINT HEAD FOR ALL LAYERS
    PRINT BUDGET
 UBDSV1 SAVING "         STORAGE" ON UNIT  53 AT TIME STEP 94, STRESS PERIOD   3
 UBDSV2 SAVING "   CONSTANT HEAD" ON UNIT  53 AT TIME STEP 94, STRESS PERIOD   3
 UBDSV1 SAVING "FLOW RIGHT FACE " ON UNIT  53 AT TIME STEP 94, STRESS PERIOD   3
 UBDSV1 SAVING "FLOW FRONT FACE " ON UNIT  53 AT TIME STEP 94, STRESS PERIOD   3
 UBDSV1 SAVING "FLOW LOWER FACE " ON UNIT  53 AT TIME STEP 94, STRESS PERIOD   3
1
              HEAD IN LAYER   1 AT END OF TIME STEP  94 IN STRESS PERIOD    3
  ---------------------------------------------------------------------------

            1           2           3           4           5           6           7           8           9          10
 ........................................................................................................................
   1    9.999       9.413       8.767       8.019       7.147       6.133       4.928       3.494       1.837      2.6072E-03
   2    9.998       9.378       8.689       7.891       6.986       6.001       4.842       3.447       1.817      2.5760E-03
   3    9.998       9.312       8.533       7.608       6.587       5.706       4.669       3.359       1.781      2.5208E-03
   4    9.998       9.233       8.321       7.134       5.696       5.211       4.436       3.256       1.741      2.4610E-03
   5    9.998       9.187       8.163       6.576       2.814       4.622       4.262       3.197       1.722      2.4317E-03
   6    9.998       9.236       8.325       7.140       5.703       5.217       4.440       3.259       1.743      2.4634E-03
   7    9.998       9.318       8.545       7.624       6.605       5.722       4.682       3.368       1.785      2.5275E-03
   8    9.999       9.391       8.715       7.927       7.025       6.037       4.871       3.466       1.826      2.5903E-03
   9    9.999       9.439       8.819       8.092       7.229       6.209       4.986       3.532       1.855      2.6352E-03
  10    9.999       9.462       8.866       8.164       7.314       6.284       5.040       3.564       1.870      2.6575E-03
1
              HEAD IN LAYER   2 AT END OF TIME STEP  94 IN STRESS PERIOD    3
  ---------------------------------------------------------------------------

            1           2           3           4           5           6           7           8           9          10
 ........................................................................................................................
   1    9.999       9.407       8.756       8.004       7.129       6.115       4.911       3.481       1.828      5.0334E-03
   2    9.998       9.372       8.678       7.876       6.967       5.982       4.825       3.433       1.808      4.9770E-03
   3    9.998       9.306       8.521       7.592       6.568       5.687       4.652       3.345       1.772      4.8766E-03
   4    9.998       9.226       8.308       7.116       5.679       5.192       4.418       3.241       1.732      4.7678E-03
   5    9.998       9.180       8.149       6.558       3.245       4.608       4.244       3.183       1.713      4.7146E-03
   6    9.998       9.229       8.312       7.122       5.685       5.198       4.423       3.245       1.734      4.7725E-03
   7    9.998       9.312       8.533       7.608       6.586       5.703       4.665       3.354       1.776      4.8889E-03
   8    9.998       9.385       8.704       7.912       7.008       6.019       4.854       3.453       1.817      5.0033E-03
   9    9.999       9.434       8.809       8.078       7.213       6.193       4.971       3.519       1.847      5.0849E-03
  10    9.999       9.457       8.857       8.150       7.299       6.268       5.024       3.551       1.862      5.1256E-03
1
              HEAD IN LAYER   3 AT END OF TIME STEP  94 IN STRESS PERIOD    3
  ---------------------------------------------------------------------------

            1           2           3           4           5           6           7           8           9          10
 ........................................................................................................................
   1    9.999       9.403       8.748       7.993       7.116       6.101       4.898       3.469       1.820      5.3996E-03
   2    9.998       9.368       8.670       7.865       6.954       5.968       4.811       3.421       1.800      5.3388E-03
   3    9.998       9.301       8.513       7.579       6.554       5.672       4.638       3.333       1.763      5.2310E-03
   4    9.998       9.221       8.299       7.103       5.671       5.177       4.403       3.229       1.724      5.1142E-03
   5    9.998       9.175       8.140       6.551       3.596       4.602       4.230       3.170       1.705      5.0572E-03
   6    9.998       9.224       8.303       7.109       5.678       5.183       4.408       3.233       1.726      5.1193E-03
   7    9.998       9.308       8.525       7.596       6.572       5.689       4.651       3.342       1.768      5.2444E-03
   8    9.998       9.381       8.696       7.901       6.995       6.006       4.841       3.441       1.809      5.3676E-03
   9    9.999       9.430       8.802       8.069       7.202       6.180       4.958       3.508       1.839      5.4555E-03
  10    9.999       9.453       8.850       8.141       7.287       6.256       5.012       3.541       1.854      5.4994E-03
1
              HEAD IN LAYER   4 AT END OF TIME STEP  94 IN STRESS PERIOD    3
  ---------------------------------------------------------------------------

            1           2           3           4           5           6           7           8           9          10
 ........................................................................................................................
   1    9.999       9.401       8.744       7.988       7.110       6.095       4.891       3.463       1.816      5.4285E-03
   2    9.998       9.366       8.666       7.859       6.947       5.961       4.804       3.416       1.796      5.3673E-03
   3    9.998       9.299       8.508       7.573       6.547       5.664       4.631       3.327       1.759      5.2585E-03
   4    9.998       9.219       8.294       7.097       5.669       5.169       4.396       3.223       1.720      5.1407E-03
   5    9.998       9.172       8.135       6.549       3.764       4.601       4.223       3.164       1.701      5.0834E-03
   6    9.998       9.222       8.299       7.103       5.677       5.176       4.401       3.226       1.722      5.1460E-03
   7    9.998       9.305       8.521       7.590       6.565       5.681       4.644       3.336       1.764      5.2722E-03
   8    9.998       9.379       8.693       7.896       6.988       5.999       4.834       3.435       1.806      5.3965E-03
   9    9.999       9.428       8.798       8.064       7.196       6.174       4.952       3.503       1.835      5.4853E-03
  10    9.999       9.452       8.847       8.137       7.282       6.249       5.006       3.535       1.850      5.5297E-03

 HEAD WILL BE SAVED ON UNIT   51 AT END OF TIME STEP   94, STRESS PERIOD    3

 DRAWDOWN WILL BE SAVED ON UNIT   52 AT END OF TIME STEP   94, STRESS PERIOD    3
1
  VOLUMETRIC BUDGET FOR ENTIRE MODEL AT END OF TIME STEP   94, STRESS PERIOD   3
  ------------------------------------------------------------------------------

     CUMULATIVE VOLUMES      L**3       RATES FOR THIS TIME STEP      L**3/T
     ------------------                 ------------------------

           IN:                                      IN:
           ---                                      ---
             STORAGE =      444563.8125               STORAGE =        1004.4348
       CONSTANT HEAD =           0.0000         CONSTANT HEAD =           0.0000
               WELLS =           0.0000                 WELLS =           0.0000
     HEAD DEP BOUNDS =       25013.7598       HEAD DEP BOUNDS =         398.7997

            TOTAL IN =      469577.5625              TOTAL IN =        1403.2344

          OUT:                                     OUT:
          ----                                     ----
             STORAGE =           0.0000               STORAGE =           0.0000
       CONSTANT HEAD =           0.0000         CONSTANT HEAD =           0.0000
               WELLS =       47000.0000                 WELLS =         500.0000
     HEAD DEP BOUNDS =      422579.3438       HEAD DEP BOUNDS =         903.2512

           TOTAL OUT =      469579.3438             TOTAL OUT =        1403.2512

            IN - OUT =          -1.7812              IN - OUT =      -1.6846E-02

 PERCENT DISCREPANCY =          -0.00     PERCENT DISCREPANCY =          -0.00






         TIME SUMMARY AT END OF TIME STEP   94 IN STRESS PERIOD    3
                    SECONDS     MINUTES      HOURS       DAYS        YEARS
                    -----------------------------------------------------------
   TIME STEP LENGTH  86400.      1440.0      24.000      1.0000     2.73785E-03
 STRESS PERIOD TIME 8.12160E+06 1.35360E+05  2256.0      94.000     0.25736    
         TOTAL TIME 1.68480E+07 2.80800E+05  4680.0      195.00     0.53388    
1
 
 SOLVING FOR HEAD 

 OUTPUT CONTROL FOR STRESS PERIOD    3   TIME STEP   95
    SAVE HEAD FOR ALL LAYERS
    SAVE DRAWDOWN FOR ALL LAYERS
    SAVE BUDGET
    PRINT HEAD FOR ALL LAYERS
    PRINT BUDGET
 UBDSV1 SAVING "         STORAGE" ON UNIT  53 AT TIME STEP 95, STRESS PERIOD   3
 UBDSV2 SAVING "   CONSTANT HEAD" ON UNIT  53 AT TIME STEP 95, STRESS PERIOD   3
 UBDSV1 SAVING "FLOW RIGHT FACE " ON UNIT  53 AT TIME STEP 95, STRESS PERIOD   3
 UBDSV1 SAVING "FLOW FRONT FACE " ON UNIT  53 AT TIME STEP 95, STRESS PERIOD   3
 UBDSV1 SAVING "FLOW LOWER FACE " ON UNIT  53 AT TIME STEP 95, STRESS PERIOD   3
1
              HEAD IN LAYER   1 AT END OF TIME STEP  95 IN STRESS PERIOD    3
  ---------------------------------------------------------------------------

            1           2           3           4           5           6           7           8           9          10
 ........................................................................................................................
   1    9.999       9.408       8.757       8.006       7.131       6.117       4.913       3.483       1.831      2.5975E-03
   2    9.998       9.373       8.679       7.878       6.969       5.984       4.827       3.435       1.810      2.5662E-03
   3    9.998       9.307       8.523       7.594       6.570       5.688       4.654       3.347       1.774      2.5105E-03
   4    9.998       9.228       8.310       7.119       5.678       5.193       4.419       3.243       1.734      2.4505E-03
   5    9.998       9.181       8.152       6.560       2.795       4.604       4.245       3.184       1.715      2.4210E-03
   6    9.998       9.230       8.315       7.125       5.685       5.199       4.424       3.246       1.736      2.4529E-03
   7    9.998       9.313       8.535       7.610       6.588       5.705       4.667       3.356       1.778      2.5173E-03
   8    9.998       9.386       8.705       7.914       7.010       6.021       4.856       3.455       1.820      2.5807E-03
   9    9.999       9.435       8.810       8.080       7.215       6.195       4.973       3.521       1.850      2.6261E-03
  10    9.999       9.458       8.858       8.152       7.300       6.270       5.027       3.554       1.864      2.6489E-03
1
              HEAD IN LAYER   2 AT END OF TIME STEP  95 IN STRESS PERIOD    3
  ---------------------------------------------------------------------------

            1           2           3           4           5           6           7           8           9          10
 ........................................................................................................................
   1    9.999       9.402       8.746       7.991       7.114       6.099       4.897       3.469       1.822      5.0161E-03
   2    9.998       9.367       8.668       7.862       6.951       5.966       4.810       3.422       1.802      4.9592E-03
   3    9.998       9.300       8.511       7.577       6.551       5.669       4.636       3.333       1.765      4.8580E-03
   4    9.998       9.221       8.297       7.101       5.661       5.174       4.401       3.229       1.725      4.7486E-03
   5    9.998       9.174       8.138       6.542       3.225       4.589       4.228       3.170       1.706      4.6952E-03
   6    9.998       9.223       8.302       7.107       5.668       5.180       4.407       3.232       1.727      4.7534E-03
   7    9.998       9.307       8.523       7.594       6.569       5.686       4.650       3.342       1.770      4.8707E-03
   8    9.998       9.380       8.695       7.899       6.992       6.004       4.840       3.441       1.811      4.9862E-03
   9    9.999       9.429       8.800       8.066       7.199       6.178       4.957       3.509       1.841      5.0687E-03
  10    9.999       9.453       8.849       8.139       7.285       6.254       5.012       3.541       1.856      5.1099E-03
1
              HEAD IN LAYER   3 AT END OF TIME STEP  95 IN STRESS PERIOD    3
  ---------------------------------------------------------------------------

            1           2           3           4           5           6           7           8           9          10
 ........................................................................................................................
   1    9.998       9.398       8.739       7.980       7.101       6.086       4.883       3.458       1.814      5.3811E-03
   2    9.998       9.363       8.660       7.851       6.938       5.951       4.796       3.410       1.793      5.3199E-03
   3    9.998       9.296       8.502       7.565       6.537       5.654       4.622       3.321       1.757      5.2113E-03
   4    9.998       9.216       8.288       7.088       5.653       5.159       4.387       3.217       1.717      5.0938E-03
   5    9.998       9.169       8.129       6.535       3.577       4.583       4.214       3.158       1.698      5.0366E-03
   6    9.998       9.218       8.292       7.094       5.661       5.165       4.392       3.220       1.719      5.0991E-03
   7    9.998       9.302       8.515       7.582       6.556       5.672       4.636       3.330       1.761      5.2251E-03
   8    9.998       9.377       8.687       7.888       6.980       5.990       4.827       3.430       1.803      5.3494E-03
   9    9.999       9.426       8.793       8.057       7.188       6.165       4.945       3.498       1.833      5.4383E-03
  10    9.999       9.449       8.842       8.130       7.274       6.242       4.999       3.530       1.848      5.4828E-03
1
              HEAD IN LAYER   4 AT END OF TIME STEP  95 IN STRESS PERIOD    3
  ---------------------------------------------------------------------------

            1           2           3           4           5           6           7           8           9          10
 ........................................................................................................................
   1    9.998       9.396       8.735       7.975       7.095       6.079       4.877       3.452       1.810      5.4101E-03
   2    9.998       9.360       8.656       7.845       6.931       5.944       4.789       3.404       1.789      5.3483E-03
   3    9.998       9.294       8.498       7.559       6.530       5.647       4.615       3.315       1.753      5.2387E-03
   4    9.998       9.213       8.283       7.081       5.652       5.151       4.380       3.210       1.713      5.1203E-03
   5    9.998       9.167       8.124       6.533       3.745       4.582       4.207       3.152       1.694      5.0627E-03
   6    9.998       9.216       8.288       7.088       5.659       5.158       4.385       3.214       1.715      5.1257E-03
   7    9.998       9.300       8.510       7.576       6.549       5.665       4.629       3.324       1.757      5.2528E-03
   8    9.998       9.375       8.683       7.883       6.973       5.983       4.820       3.425       1.799      5.3782E-03
   9    9.999       9.424       8.790       8.052       7.182       6.159       4.939       3.492       1.829      5.4680E-03
  10    9.999       9.447       8.839       8.125       7.268       6.235       4.993       3.525       1.845      5.5130E-03

 HEAD WILL BE SAVED ON UNIT   51 AT END OF TIME STEP   95, STRESS PERIOD    3

 DRAWDOWN WILL BE SAVED ON UNIT   52 AT END OF TIME STEP   95, STRESS PERIOD    3
1
  VOLUMETRIC BUDGET FOR ENTIRE MODEL AT END OF TIME STEP   95, STRESS PERIOD   3
  ------------------------------------------------------------------------------

     CUMULATIVE VOLUMES      L**3       RATES FOR THIS TIME STEP      L**3/T
     ------------------                 ------------------------

           IN:                                      IN:
           ---                                      ---
             STORAGE =      445561.9375               STORAGE =         998.1118
       CONSTANT HEAD =           0.0000         CONSTANT HEAD =           0.0000
               WELLS =           0.0000                 WELLS =           0.0000
     HEAD DEP BOUNDS =       25415.6133       HEAD DEP BOUNDS =         401.8537

            TOTAL IN =      470977.5625              TOTAL IN =        1399.9655

          OUT:                                     OUT:
          ----                                     ----
             STORAGE =           0.0000               STORAGE =           0.0000
       CONSTANT HEAD =           0.0000         CONSTANT HEAD =           0.0000
               WELLS =       47500.0000                 WELLS =         500.0000
     HEAD DEP BOUNDS =      423479.3125       HEAD DEP BOUNDS =         899.9636

           TOTAL OUT =      470979.3125             TOTAL OUT =        1399.9636

            IN - OUT =          -1.7500              IN - OUT =       1.8311E-03

 PERCENT DISCREPANCY =          -0.00     PERCENT DISCREPANCY =           0.00






         TIME SUMMARY AT END OF TIME STEP   95 IN STRESS PERIOD    3
                    SECONDS     MINUTES      HOURS       DAYS        YEARS
                    -----------------------------------------------------------
   TIME STEP LENGTH  86400.      1440.0      24.000      1.0000     2.73785E-03
 STRESS PERIOD TIME 8.20800E+06 1.36800E+05  2280.0      95.000     0.26010    
         TOTAL TIME 1.69344E+07 2.82240E+05  4704.0      196.00     0.53662    
1
 
 SOLVING FOR HEAD 

 OUTPUT CONTROL FOR STRESS PERIOD    3   TIME STEP   96
    SAVE HEAD FOR ALL LAYERS
    SAVE DRAWDOWN FOR ALL LAYERS
    SAVE BUDGET
    PRINT HEAD FOR ALL LAYERS
    PRINT BUDGET
 UBDSV1 SAVING "         STORAGE" ON UNIT  53 AT TIME STEP 96, STRESS PERIOD   3
 UBDSV2 SAVING "   CONSTANT HEAD" ON UNIT  53 AT TIME STEP 96, STRESS PERIOD   3
 UBDSV1 SAVING "FLOW RIGHT FACE " ON UNIT  53 AT TIME STEP 96, STRESS PERIOD   3
 UBDSV1 SAVING "FLOW FRONT FACE " ON UNIT  53 AT TIME STEP 96, STRESS PERIOD   3
 UBDSV1 SAVING "FLOW LOWER FACE " ON UNIT  53 AT TIME STEP 96, STRESS PERIOD   3
1
              HEAD IN LAYER   1 AT END OF TIME STEP  96 IN STRESS PERIOD    3
  ---------------------------------------------------------------------------

            1           2           3           4           5           6           7           8           9          10
 ........................................................................................................................
   1    9.999       9.403       8.748       7.992       7.116       6.101       4.899       3.472       1.825      2.5879E-03
   2    9.998       9.368       8.670       7.864       6.953       5.967       4.812       3.424       1.804      2.5563E-03
   3    9.998       9.302       8.512       7.579       6.553       5.671       4.638       3.335       1.767      2.5002E-03
   4    9.998       9.222       8.299       7.104       5.660       5.175       4.402       3.230       1.728      2.4399E-03
   5    9.998       9.176       8.141       6.545       2.775       4.585       4.228       3.171       1.708      2.4103E-03
   6    9.998       9.224       8.304       7.110       5.667       5.181       4.408       3.234       1.729      2.4425E-03
   7    9.998       9.308       8.525       7.596       6.572       5.688       4.651       3.344       1.772      2.5074E-03
   8    9.998       9.381       8.696       7.901       6.994       6.006       4.842       3.444       1.814      2.5714E-03
   9    9.999       9.430       8.801       8.068       7.201       6.180       4.959       3.511       1.844      2.6171E-03
  10    9.999       9.453       8.850       8.141       7.287       6.256       5.014       3.543       1.859      2.6402E-03
1
              HEAD IN LAYER   2 AT END OF TIME STEP  96 IN STRESS PERIOD    3
  ---------------------------------------------------------------------------

            1           2           3           4           5           6           7           8           9          10
 ........................................................................................................................
   1    9.998       9.397       8.737       7.978       7.098       6.083       4.882       3.458       1.816      4.9989E-03
   2    9.998       9.362       8.658       7.849       6.935       5.949       4.795       3.410       1.795      4.9415E-03
   3    9.998       9.295       8.500       7.563       6.534       5.652       4.620       3.321       1.758      4.8396E-03
   4    9.998       9.215       8.286       7.086       5.643       5.155       4.385       3.216       1.718      4.7295E-03
   5    9.998       9.169       8.127       6.527       3.206       4.570       4.211       3.157       1.699      4.6759E-03
   6    9.998       9.218       8.291       7.092       5.650       5.162       4.390       3.220       1.720      4.7346E-03
   7    9.998       9.302       8.513       7.580       6.553       5.669       4.635       3.330       1.763      4.8527E-03
   8    9.998       9.376       8.685       7.886       6.977       5.988       4.826       3.430       1.805      4.9692E-03
   9    9.999       9.425       8.792       8.054       7.185       6.163       4.944       3.498       1.835      5.0526E-03
  10    9.999       9.448       8.840       8.128       7.272       6.240       4.999       3.531       1.850      5.0944E-03
1
              HEAD IN LAYER   3 AT END OF TIME STEP  96 IN STRESS PERIOD    3
  ---------------------------------------------------------------------------

            1           2           3           4           5           6           7           8           9          10
 ........................................................................................................................
   1    9.998       9.393       8.729       7.967       7.086       6.070       4.869       3.447       1.808      5.3628E-03
   2    9.998       9.357       8.650       7.838       6.922       5.935       4.781       3.399       1.787      5.3011E-03
   3    9.998       9.291       8.492       7.551       6.520       5.637       4.606       3.309       1.750      5.1917E-03
   4    9.998       9.210       8.277       7.073       5.636       5.141       4.371       3.204       1.710      5.0735E-03
   5    9.998       9.164       8.118       6.520       3.558       4.565       4.197       3.145       1.691      5.0161E-03
   6    9.998       9.213       8.282       7.079       5.643       5.147       4.376       3.208       1.712      5.0790E-03
   7    9.998       9.297       8.505       7.568       6.539       5.655       4.621       3.319       1.755      5.2059E-03
   8    9.998       9.372       8.678       7.875       6.965       5.975       4.813       3.419       1.797      5.3313E-03
   9    9.999       9.421       8.785       8.045       7.174       6.151       4.932       3.487       1.828      5.4212E-03
  10    9.999       9.445       8.834       8.118       7.260       6.228       4.987       3.520       1.843      5.4662E-03
1
              HEAD IN LAYER   4 AT END OF TIME STEP  96 IN STRESS PERIOD    3
  ---------------------------------------------------------------------------

            1           2           3           4           5           6           7           8           9          10
 ........................................................................................................................
   1    9.998       9.391       8.725       7.962       7.079       6.063       4.862       3.441       1.804      5.3917E-03
   2    9.998       9.355       8.646       7.832       6.916       5.928       4.775       3.393       1.783      5.3294E-03
   3    9.998       9.288       8.488       7.545       6.513       5.630       4.599       3.303       1.746      5.2191E-03
   4    9.998       9.208       8.272       7.066       5.634       5.133       4.364       3.198       1.706      5.1000E-03
   5    9.998       9.161       8.113       6.518       3.726       4.564       4.190       3.139       1.687      5.0422E-03
   6    9.998       9.210       8.277       7.073       5.641       5.140       4.369       3.202       1.708      5.1056E-03
   7    9.998       9.295       8.500       7.562       6.532       5.648       4.614       3.313       1.751      5.2336E-03
   8    9.998       9.370       8.674       7.870       6.958       5.968       4.806       3.414       1.793      5.3601E-03
   9    9.999       9.419       8.781       8.040       7.168       6.144       4.925       3.482       1.824      5.4509E-03
  10    9.999       9.443       8.831       8.114       7.255       6.221       4.981       3.515       1.839      5.4964E-03

 HEAD WILL BE SAVED ON UNIT   51 AT END OF TIME STEP   96, STRESS PERIOD    3

 DRAWDOWN WILL BE SAVED ON UNIT   52 AT END OF TIME STEP   96, STRESS PERIOD    3
1
  VOLUMETRIC BUDGET FOR ENTIRE MODEL AT END OF TIME STEP   96, STRESS PERIOD   3
  ------------------------------------------------------------------------------

     CUMULATIVE VOLUMES      L**3       RATES FOR THIS TIME STEP      L**3/T
     ------------------                 ------------------------

           IN:                                      IN:
           ---                                      ---
             STORAGE =      446553.7500               STORAGE =         991.8270
       CONSTANT HEAD =           0.0000         CONSTANT HEAD =           0.0000
               WELLS =           0.0000                 WELLS =           0.0000
     HEAD DEP BOUNDS =       25820.4863       HEAD DEP BOUNDS =         404.8726

            TOTAL IN =      472374.2500              TOTAL IN =        1396.6996

          OUT:                                     OUT:
          ----                                     ----
             STORAGE =           0.0000               STORAGE =           0.0000
       CONSTANT HEAD =           0.0000         CONSTANT HEAD =           0.0000
               WELLS =       48000.0000                 WELLS =         500.0000
     HEAD DEP BOUNDS =      424376.0000       HEAD DEP BOUNDS =         896.6984

           TOTAL OUT =      472376.0000             TOTAL OUT =        1396.6985

            IN - OUT =          -1.7500              IN - OUT =       1.0986E-03

 PERCENT DISCREPANCY =          -0.00     PERCENT DISCREPANCY =           0.00






         TIME SUMMARY AT END OF TIME STEP   96 IN STRESS PERIOD    3
                    SECONDS     MINUTES      HOURS       DAYS        YEARS
                    -----------------------------------------------------------
   TIME STEP LENGTH  86400.      1440.0      24.000      1.0000     2.73785E-03
 STRESS PERIOD TIME 8.29440E+06 1.38240E+05  2304.0      96.000     0.26283    
         TOTAL TIME 1.70208E+07 2.83680E+05  4728.0      197.00     0.53936    
1
 
 SOLVING FOR HEAD 

 OUTPUT CONTROL FOR STRESS PERIOD    3   TIME STEP   97
    SAVE HEAD FOR ALL LAYERS
    SAVE DRAWDOWN FOR ALL LAYERS
    SAVE BUDGET
    PRINT HEAD FOR ALL LAYERS
    PRINT BUDGET
 UBDSV1 SAVING "         STORAGE" ON UNIT  53 AT TIME STEP 97, STRESS PERIOD   3
 UBDSV2 SAVING "   CONSTANT HEAD" ON UNIT  53 AT TIME STEP 97, STRESS PERIOD   3
 UBDSV1 SAVING "FLOW RIGHT FACE " ON UNIT  53 AT TIME STEP 97, STRESS PERIOD   3
 UBDSV1 SAVING "FLOW FRONT FACE " ON UNIT  53 AT TIME STEP 97, STRESS PERIOD   3
 UBDSV1 SAVING "FLOW LOWER FACE " ON UNIT  53 AT TIME STEP 97, STRESS PERIOD   3
1
              HEAD IN LAYER   1 AT END OF TIME STEP  97 IN STRESS PERIOD    3
  ---------------------------------------------------------------------------

            1           2           3           4           5           6           7           8           9          10
 ........................................................................................................................
   1    9.999       9.398       8.738       7.979       7.100       6.085       4.884       3.460       1.818      2.5784E-03
   2    9.998       9.363       8.660       7.850       6.937       5.951       4.797       3.412       1.798      2.5466E-03
   3    9.998       9.296       8.502       7.565       6.536       5.653       4.622       3.323       1.761      2.4902E-03
   4    9.998       9.216       8.288       7.089       5.642       5.156       4.386       3.218       1.721      2.4293E-03
   5    9.998       9.170       8.130       6.529       2.756       4.566       4.212       3.159       1.701      2.3997E-03
   6    9.998       9.219       8.293       7.095       5.649       5.163       4.392       3.221       1.722      2.4321E-03
   7    9.998       9.303       8.515       7.582       6.555       5.671       4.636       3.332       1.765      2.4973E-03
   8    9.998       9.377       8.687       7.888       6.979       5.990       4.828       3.433       1.808      2.5619E-03
   9    9.999       9.426       8.793       8.056       7.187       6.165       4.946       3.500       1.838      2.6082E-03
  10    9.999       9.449       8.842       8.129       7.273       6.242       5.001       3.533       1.853      2.6314E-03
1
              HEAD IN LAYER   2 AT END OF TIME STEP  97 IN STRESS PERIOD    3
  ---------------------------------------------------------------------------

            1           2           3           4           5           6           7           8           9          10
 ........................................................................................................................
   1    9.998       9.392       8.727       7.964       7.083       6.068       4.868       3.447       1.810      4.9817E-03
   2    9.998       9.356       8.648       7.835       6.920       5.933       4.780       3.399       1.789      4.9239E-03
   3    9.998       9.290       8.490       7.548       6.517       5.635       4.605       3.309       1.752      4.8214E-03
   4    9.998       9.209       8.275       7.071       5.625       5.137       4.369       3.204       1.712      4.7106E-03
   5    9.998       9.163       8.116       6.512       3.187       4.552       4.195       3.145       1.692      4.6568E-03
   6    9.998       9.212       8.280       7.077       5.632       5.144       4.374       3.208       1.714      4.7158E-03
   7    9.998       9.296       8.503       7.566       6.537       5.653       4.619       3.319       1.757      4.8348E-03
   8    9.998       9.371       8.676       7.873       6.962       5.972       4.811       3.419       1.799      4.9523E-03
   9    9.999       9.420       8.783       8.042       7.171       6.149       4.931       3.488       1.829      5.0366E-03
  10    9.999       9.444       8.832       8.116       7.258       6.226       4.986       3.521       1.845      5.0788E-03
1
              HEAD IN LAYER   3 AT END OF TIME STEP  97 IN STRESS PERIOD    3
  ---------------------------------------------------------------------------

            1           2           3           4           5           6           7           8           9          10
 ........................................................................................................................
   1    9.998       9.388       8.720       7.954       7.070       6.054       4.855       3.436       1.802      5.3446E-03
   2    9.998       9.352       8.641       7.824       6.906       5.919       4.767       3.387       1.781      5.2824E-03
   3    9.998       9.285       8.482       7.537       6.503       5.620       4.591       3.297       1.744      5.1722E-03
   4    9.998       9.205       8.266       7.058       5.618       5.123       4.355       3.192       1.703      5.0534E-03
   5    9.998       9.158       8.107       6.505       3.539       4.547       4.181       3.133       1.684      4.9958E-03
   6    9.998       9.207       8.271       7.065       5.626       5.130       4.360       3.196       1.705      5.0591E-03
   7    9.998       9.292       8.495       7.554       6.523       5.638       4.606       3.307       1.749      5.1869E-03
   8    9.998       9.367       8.669       7.863       6.950       5.959       4.798       3.408       1.791      5.3134E-03
   9    9.999       9.417       8.776       8.033       7.160       6.136       4.918       3.477       1.822      5.4042E-03
  10    9.999       9.441       8.826       8.107       7.247       6.214       4.974       3.511       1.837      5.4497E-03
1
              HEAD IN LAYER   4 AT END OF TIME STEP  97 IN STRESS PERIOD    3
  ---------------------------------------------------------------------------

            1           2           3           4           5           6           7           8           9          10
 ........................................................................................................................
   1    9.998       9.386       8.716       7.949       7.064       6.047       4.848       3.430       1.798      5.3734E-03
   2    9.998       9.350       8.637       7.819       6.900       5.912       4.760       3.381       1.777      5.3106E-03
   3    9.998       9.283       8.477       7.531       6.496       5.613       4.584       3.291       1.740      5.1995E-03
   4    9.998       9.202       8.262       7.052       5.616       5.115       4.348       3.186       1.699      5.0798E-03
   5    9.998       9.155       8.102       6.503       3.707       4.546       4.174       3.127       1.680      5.0218E-03
   6    9.998       9.205       8.267       7.058       5.624       5.122       4.353       3.190       1.701      5.0856E-03
   7    9.998       9.290       8.491       7.548       6.516       5.631       4.599       3.301       1.745      5.2145E-03
   8    9.998       9.365       8.665       7.857       6.943       5.952       4.792       3.403       1.787      5.3421E-03
   9    9.999       9.415       8.773       8.028       7.154       6.130       4.912       3.472       1.818      5.4338E-03
  10    9.999       9.439       8.822       8.102       7.242       6.208       4.968       3.505       1.833      5.4798E-03

 HEAD WILL BE SAVED ON UNIT   51 AT END OF TIME STEP   97, STRESS PERIOD    3

 DRAWDOWN WILL BE SAVED ON UNIT   52 AT END OF TIME STEP   97, STRESS PERIOD    3
1
  VOLUMETRIC BUDGET FOR ENTIRE MODEL AT END OF TIME STEP   97, STRESS PERIOD   3
  ------------------------------------------------------------------------------

     CUMULATIVE VOLUMES      L**3       RATES FOR THIS TIME STEP      L**3/T
     ------------------                 ------------------------

           IN:                                      IN:
           ---                                      ---
             STORAGE =      447539.3438               STORAGE =         985.5798
       CONSTANT HEAD =           0.0000         CONSTANT HEAD =           0.0000
               WELLS =           0.0000                 WELLS =           0.0000
     HEAD DEP BOUNDS =       26228.3809       HEAD DEP BOUNDS =         407.8949

            TOTAL IN =      473767.7188              TOTAL IN =        1393.4747

          OUT:                                     OUT:
          ----                                     ----
             STORAGE =           0.0000               STORAGE =           0.0000
       CONSTANT HEAD =           0.0000         CONSTANT HEAD =           0.0000
               WELLS =       48500.0000                 WELLS =         500.0000
     HEAD DEP BOUNDS =      425269.4375       HEAD DEP BOUNDS =         893.4517

           TOTAL OUT =      473769.4375             TOTAL OUT =        1393.4517

            IN - OUT =          -1.7188              IN - OUT =       2.3071E-02

 PERCENT DISCREPANCY =          -0.00     PERCENT DISCREPANCY =           0.00






         TIME SUMMARY AT END OF TIME STEP   97 IN STRESS PERIOD    3
                    SECONDS     MINUTES      HOURS       DAYS        YEARS
                    -----------------------------------------------------------
   TIME STEP LENGTH  86400.      1440.0      24.000      1.0000     2.73785E-03
 STRESS PERIOD TIME 8.38080E+06 1.39680E+05  2328.0      97.000     0.26557    
         TOTAL TIME 1.71072E+07 2.85120E+05  4752.0      198.00     0.54209    
1
 
 SOLVING FOR HEAD 

 OUTPUT CONTROL FOR STRESS PERIOD    3   TIME STEP   98
    SAVE HEAD FOR ALL LAYERS
    SAVE DRAWDOWN FOR ALL LAYERS
    SAVE BUDGET
    PRINT HEAD FOR ALL LAYERS
    PRINT BUDGET
 UBDSV1 SAVING "         STORAGE" ON UNIT  53 AT TIME STEP 98, STRESS PERIOD   3
 UBDSV2 SAVING "   CONSTANT HEAD" ON UNIT  53 AT TIME STEP 98, STRESS PERIOD   3
 UBDSV1 SAVING "FLOW RIGHT FACE " ON UNIT  53 AT TIME STEP 98, STRESS PERIOD   3
 UBDSV1 SAVING "FLOW FRONT FACE " ON UNIT  53 AT TIME STEP 98, STRESS PERIOD   3
 UBDSV1 SAVING "FLOW LOWER FACE " ON UNIT  53 AT TIME STEP 98, STRESS PERIOD   3
1
              HEAD IN LAYER   1 AT END OF TIME STEP  98 IN STRESS PERIOD    3
  ---------------------------------------------------------------------------

            1           2           3           4           5           6           7           8           9          10
 ........................................................................................................................
   1    9.999       9.393       8.729       7.966       7.085       6.069       4.870       3.449       1.812      2.5690E-03
   2    9.998       9.358       8.650       7.837       6.922       5.935       4.782       3.401       1.791      2.5367E-03
   3    9.998       9.291       8.492       7.551       6.520       5.636       4.606       3.311       1.754      2.4801E-03
   4    9.998       9.211       8.278       7.074       5.624       5.138       4.370       3.205       1.714      2.4188E-03
   5    9.998       9.164       8.119       6.514       2.737       4.548       4.195       3.146       1.694      2.3892E-03
   6    9.998       9.213       8.283       7.080       5.632       5.145       4.375       3.209       1.716      2.4217E-03
   7    9.998       9.298       8.505       7.568       6.539       5.654       4.621       3.321       1.759      2.4876E-03
   8    9.998       9.372       8.678       7.875       6.964       5.974       4.813       3.422       1.802      2.5525E-03
   9    9.999       9.421       8.784       8.044       7.173       6.151       4.933       3.490       1.832      2.5994E-03
  10    9.999       9.445       8.833       8.118       7.260       6.228       4.988       3.523       1.847      2.6228E-03
1
              HEAD IN LAYER   2 AT END OF TIME STEP  98 IN STRESS PERIOD    3
  ---------------------------------------------------------------------------

            1           2           3           4           5           6           7           8           9          10
 ........................................................................................................................
   1    9.998       9.387       8.718       7.951       7.068       6.052       4.853       3.436       1.804      4.9647E-03
   2    9.998       9.351       8.639       7.822       6.904       5.917       4.765       3.387       1.782      4.9064E-03
   3    9.998       9.284       8.480       7.534       6.501       5.618       4.589       3.297       1.745      4.8032E-03
   4    9.998       9.204       8.265       7.056       5.607       5.119       4.353       3.192       1.705      4.6918E-03
   5    9.998       9.157       8.106       6.496       3.168       4.534       4.178       3.132       1.685      4.6378E-03
   6    9.998       9.207       8.270       7.063       5.615       5.127       4.358       3.195       1.707      4.6972E-03
   7    9.998       9.291       8.493       7.552       6.521       5.636       4.604       3.307       1.750      4.8170E-03
   8    9.998       9.366       8.667       7.860       6.947       5.957       4.797       3.409       1.793      4.9355E-03
   9    9.999       9.416       8.774       8.031       7.157       6.134       4.917       3.478       1.824      5.0207E-03
  10    9.999       9.440       8.824       8.105       7.245       6.212       4.973       3.511       1.839      5.0634E-03
1
              HEAD IN LAYER   3 AT END OF TIME STEP  98 IN STRESS PERIOD    3
  ---------------------------------------------------------------------------

            1           2           3           4           5           6           7           8           9          10
 ........................................................................................................................
   1    9.998       9.383       8.710       7.941       7.055       6.038       4.840       3.425       1.796      5.3264E-03
   2    9.998       9.347       8.631       7.811       6.891       5.903       4.752       3.376       1.775      5.2638E-03
   3    9.998       9.280       8.471       7.522       6.487       5.603       4.576       3.285       1.737      5.1529E-03
   4    9.998       9.199       8.256       7.043       5.601       5.105       4.339       3.180       1.697      5.0334E-03
   5    9.998       9.152       8.096       6.489       3.520       4.528       4.165       3.121       1.677      4.9756E-03
   6    9.998       9.202       8.261       7.050       5.608       5.112       4.344       3.184       1.699      5.0393E-03
   7    9.998       9.287       8.485       7.541       6.507       5.622       4.591       3.296       1.742      5.1680E-03
   8    9.998       9.362       8.660       7.850       6.935       5.944       4.784       3.397       1.785      5.2955E-03
   9    9.999       9.412       8.768       8.021       7.146       6.122       4.905       3.467       1.816      5.3872E-03
  10    9.999       9.436       8.818       8.096       7.234       6.200       4.961       3.501       1.832      5.4333E-03
1
              HEAD IN LAYER   4 AT END OF TIME STEP  98 IN STRESS PERIOD    3
  ---------------------------------------------------------------------------

            1           2           3           4           5           6           7           8           9          10
 ........................................................................................................................
   1    9.998       9.381       8.707       7.936       7.049       6.032       4.834       3.419       1.792      5.3552E-03
   2    9.998       9.345       8.627       7.805       6.884       5.896       4.745       3.370       1.771      5.2919E-03
   3    9.998       9.278       8.467       7.517       6.480       5.596       4.569       3.279       1.733      5.1801E-03
   4    9.998       9.197       8.251       7.037       5.599       5.098       4.332       3.174       1.693      5.0598E-03
   5    9.998       9.150       8.091       6.488       3.688       4.527       4.158       3.115       1.673      5.0016E-03
   6    9.998       9.200       8.256       7.044       5.607       5.105       4.337       3.178       1.695      5.0658E-03
   7    9.998       9.285       8.481       7.535       6.500       5.615       4.584       3.290       1.738      5.1955E-03
   8    9.998       9.360       8.656       7.845       6.929       5.937       4.778       3.392       1.781      5.3242E-03
   9    9.999       9.410       8.764       8.016       7.140       6.116       4.899       3.462       1.812      5.4168E-03
  10    9.999       9.435       8.814       8.091       7.228       6.194       4.955       3.495       1.828      5.4634E-03

 HEAD WILL BE SAVED ON UNIT   51 AT END OF TIME STEP   98, STRESS PERIOD    3

 DRAWDOWN WILL BE SAVED ON UNIT   52 AT END OF TIME STEP   98, STRESS PERIOD    3
1
  VOLUMETRIC BUDGET FOR ENTIRE MODEL AT END OF TIME STEP   98, STRESS PERIOD   3
  ------------------------------------------------------------------------------

     CUMULATIVE VOLUMES      L**3       RATES FOR THIS TIME STEP      L**3/T
     ------------------                 ------------------------

           IN:                                      IN:
           ---                                      ---
             STORAGE =      448518.7188               STORAGE =         979.3701
       CONSTANT HEAD =           0.0000         CONSTANT HEAD =           0.0000
               WELLS =           0.0000                 WELLS =           0.0000
     HEAD DEP BOUNDS =       26639.2637       HEAD DEP BOUNDS =         410.8819

            TOTAL IN =      475157.9688              TOTAL IN =        1390.2520

          OUT:                                     OUT:
          ----                                     ----
             STORAGE =           0.0000               STORAGE =           0.0000
       CONSTANT HEAD =           0.0000         CONSTANT HEAD =           0.0000
               WELLS =       49000.0000                 WELLS =         500.0000
     HEAD DEP BOUNDS =      426159.6562       HEAD DEP BOUNDS =         890.2270

           TOTAL OUT =      475159.6562             TOTAL OUT =        1390.2271

            IN - OUT =          -1.6875              IN - OUT =       2.4902E-02

 PERCENT DISCREPANCY =          -0.00     PERCENT DISCREPANCY =           0.00






         TIME SUMMARY AT END OF TIME STEP   98 IN STRESS PERIOD    3
                    SECONDS     MINUTES      HOURS       DAYS        YEARS
                    -----------------------------------------------------------
   TIME STEP LENGTH  86400.      1440.0      24.000      1.0000     2.73785E-03
 STRESS PERIOD TIME 8.46720E+06 1.41120E+05  2352.0      98.000     0.26831    
         TOTAL TIME 1.71936E+07 2.86560E+05  4776.0      199.00     0.54483    
1
 
 SOLVING FOR HEAD 

 OUTPUT CONTROL FOR STRESS PERIOD    3   TIME STEP   99
    SAVE HEAD FOR ALL LAYERS
    SAVE DRAWDOWN FOR ALL LAYERS
    SAVE BUDGET
    PRINT HEAD FOR ALL LAYERS
    PRINT BUDGET
 UBDSV1 SAVING "         STORAGE" ON UNIT  53 AT TIME STEP 99, STRESS PERIOD   3
 UBDSV2 SAVING "   CONSTANT HEAD" ON UNIT  53 AT TIME STEP 99, STRESS PERIOD   3
 UBDSV1 SAVING "FLOW RIGHT FACE " ON UNIT  53 AT TIME STEP 99, STRESS PERIOD   3
 UBDSV1 SAVING "FLOW FRONT FACE " ON UNIT  53 AT TIME STEP 99, STRESS PERIOD   3
 UBDSV1 SAVING "FLOW LOWER FACE " ON UNIT  53 AT TIME STEP 99, STRESS PERIOD   3
1
              HEAD IN LAYER   1 AT END OF TIME STEP  99 IN STRESS PERIOD    3
  ---------------------------------------------------------------------------

            1           2           3           4           5           6           7           8           9          10
 ........................................................................................................................
   1    9.999       9.388       8.719       7.953       7.070       6.054       4.855       3.438       1.806      2.5595E-03
   2    9.998       9.352       8.640       7.823       6.906       5.918       4.767       3.389       1.785      2.5272E-03
   3    9.998       9.286       8.482       7.537       6.503       5.619       4.591       3.299       1.747      2.4701E-03
   4    9.998       9.205       8.267       7.059       5.607       5.120       4.354       3.193       1.707      2.4086E-03
   5    9.998       9.159       8.108       6.499       2.718       4.529       4.179       3.134       1.687      2.3788E-03
   6    9.998       9.208       8.272       7.066       5.614       5.127       4.360       3.197       1.709      2.4114E-03
   7    9.998       9.292       8.495       7.554       6.523       5.638       4.606       3.309       1.752      2.4777E-03
   8    9.998       9.367       8.668       7.862       6.949       5.959       4.799       3.411       1.795      2.5433E-03
   9    9.999       9.417       8.776       8.032       7.159       6.136       4.919       3.480       1.826      2.5906E-03
  10    9.999       9.441       8.825       8.107       7.247       6.214       4.975       3.513       1.842      2.6143E-03
1
              HEAD IN LAYER   2 AT END OF TIME STEP  99 IN STRESS PERIOD    3
  ---------------------------------------------------------------------------

            1           2           3           4           5           6           7           8           9          10
 ........................................................................................................................
   1    9.998       9.382       8.709       7.939       7.053       6.036       4.839       3.425       1.797      4.9478E-03
   2    9.998       9.346       8.629       7.808       6.888       5.900       4.751       3.376       1.776      4.8890E-03
   3    9.998       9.279       8.470       7.520       6.484       5.601       4.574       3.285       1.739      4.7851E-03
   4    9.998       9.198       8.254       7.041       5.590       5.102       4.337       3.179       1.698      4.6732E-03
   5    9.998       9.152       8.095       6.481       3.149       4.515       4.162       3.120       1.679      4.6190E-03
   6    9.998       9.201       8.259       7.048       5.598       5.109       4.343       3.183       1.700      4.6787E-03
   7    9.998       9.286       8.483       7.538       6.505       5.620       4.589       3.296       1.744      4.7993E-03
   8    9.998       9.361       8.658       7.848       6.932       5.942       4.783       3.398       1.787      4.9189E-03
   9    9.999       9.411       8.766       8.019       7.143       6.120       4.904       3.467       1.818      5.0049E-03
  10    9.999       9.435       8.816       8.094       7.232       6.198       4.960       3.501       1.834      5.0481E-03
1
              HEAD IN LAYER   3 AT END OF TIME STEP  99 IN STRESS PERIOD    3
  ---------------------------------------------------------------------------

            1           2           3           4           5           6           7           8           9          10
 ........................................................................................................................
   1    9.998       9.378       8.701       7.928       7.040       6.023       4.826       3.414       1.790      5.3084E-03
   2    9.998       9.342       8.621       7.797       6.875       5.886       4.737       3.365       1.768      5.2453E-03
   3    9.998       9.275       8.461       7.508       6.470       5.586       4.560       3.274       1.731      5.1337E-03
   4    9.998       9.194       8.245       7.028       5.583       5.087       4.323       3.168       1.690      5.0136E-03
   5    9.998       9.147       8.085       6.474       3.501       4.510       4.148       3.108       1.670      4.9556E-03
   6    9.998       9.196       8.250       7.036       5.591       5.095       4.329       3.172       1.692      5.0197E-03
   7    9.998       9.282       8.475       7.527       6.491       5.605       4.576       3.284       1.736      5.1492E-03
   8    9.998       9.357       8.651       7.837       6.920       5.928       4.771       3.387       1.779      5.2778E-03
   9    9.999       9.408       8.759       8.009       7.132       6.108       4.892       3.457       1.810      5.3704E-03
  10    9.999       9.432       8.809       8.085       7.221       6.186       4.948       3.491       1.826      5.4170E-03
1
              HEAD IN LAYER   4 AT END OF TIME STEP  99 IN STRESS PERIOD    3
  ---------------------------------------------------------------------------

            1           2           3           4           5           6           7           8           9          10
 ........................................................................................................................
   1    9.998       9.376       8.697       7.923       7.034       6.016       4.820       3.408       1.786      5.3371E-03
   2    9.998       9.340       8.617       7.792       6.869       5.880       4.731       3.359       1.764      5.2734E-03
   3    9.998       9.272       8.457       7.503       6.463       5.579       4.553       3.268       1.727      5.1609E-03
   4    9.998       9.191       8.241       7.022       5.582       5.080       4.316       3.162       1.686      5.0399E-03
   5    9.998       9.144       8.081       6.473       3.670       4.509       4.142       3.102       1.666      4.9815E-03
   6    9.998       9.194       8.246       7.029       5.590       5.087       4.322       3.166       1.688      5.0461E-03
   7    9.998       9.280       8.471       7.521       6.484       5.598       4.569       3.278       1.732      5.1767E-03
   8    9.998       9.356       8.647       7.832       6.914       5.922       4.764       3.381       1.775      5.3064E-03
   9    9.999       9.406       8.756       8.005       7.126       6.101       4.886       3.451       1.807      5.4000E-03
  10    9.999       9.430       8.806       8.080       7.215       6.180       4.943       3.486       1.822      5.4470E-03

 HEAD WILL BE SAVED ON UNIT   51 AT END OF TIME STEP   99, STRESS PERIOD    3

 DRAWDOWN WILL BE SAVED ON UNIT   52 AT END OF TIME STEP   99, STRESS PERIOD    3
1
  VOLUMETRIC BUDGET FOR ENTIRE MODEL AT END OF TIME STEP   99, STRESS PERIOD   3
  ------------------------------------------------------------------------------

     CUMULATIVE VOLUMES      L**3       RATES FOR THIS TIME STEP      L**3/T
     ------------------                 ------------------------

           IN:                                      IN:
           ---                                      ---
             STORAGE =      449491.9062               STORAGE =         973.1912
       CONSTANT HEAD =           0.0000         CONSTANT HEAD =           0.0000
               WELLS =           0.0000                 WELLS =           0.0000
     HEAD DEP BOUNDS =       27053.0918       HEAD DEP BOUNDS =         413.8280

            TOTAL IN =      476545.0000              TOTAL IN =        1387.0192

          OUT:                                     OUT:
          ----                                     ----
             STORAGE =           0.0000               STORAGE =           0.0000
       CONSTANT HEAD =           0.0000         CONSTANT HEAD =           0.0000
               WELLS =       49500.0000                 WELLS =         500.0000
     HEAD DEP BOUNDS =      427046.6875       HEAD DEP BOUNDS =         887.0258

           TOTAL OUT =      476546.6875             TOTAL OUT =        1387.0259

            IN - OUT =          -1.6875              IN - OUT =      -6.7139E-03

 PERCENT DISCREPANCY =          -0.00     PERCENT DISCREPANCY =          -0.00






         TIME SUMMARY AT END OF TIME STEP   99 IN STRESS PERIOD    3
                    SECONDS     MINUTES      HOURS       DAYS        YEARS
                    -----------------------------------------------------------
   TIME STEP LENGTH  86400.      1440.0      24.000      1.0000     2.73785E-03
 STRESS PERIOD TIME 8.55360E+06 1.42560E+05  2376.0      99.000     0.27105    
         TOTAL TIME 1.72800E+07 2.88000E+05  4800.0      200.00     0.54757    
1
 
 SOLVING FOR HEAD 

 OUTPUT CONTROL FOR STRESS PERIOD    3   TIME STEP  100
    SAVE HEAD FOR ALL LAYERS
    SAVE DRAWDOWN FOR ALL LAYERS
    SAVE BUDGET
    PRINT HEAD FOR ALL LAYERS
    PRINT BUDGET
 UBDSV1 SAVING "         STORAGE" ON UNIT  53 AT TIME STEP100, STRESS PERIOD   3
 UBDSV2 SAVING "   CONSTANT HEAD" ON UNIT  53 AT TIME STEP100, STRESS PERIOD   3
 UBDSV1 SAVING "FLOW RIGHT FACE " ON UNIT  53 AT TIME STEP100, STRESS PERIOD   3
 UBDSV1 SAVING "FLOW FRONT FACE " ON UNIT  53 AT TIME STEP100, STRESS PERIOD   3
 UBDSV1 SAVING "FLOW LOWER FACE " ON UNIT  53 AT TIME STEP100, STRESS PERIOD   3
1
              HEAD IN LAYER   1 AT END OF TIME STEP 100 IN STRESS PERIOD    3
  ---------------------------------------------------------------------------

            1           2           3           4           5           6           7           8           9          10
 ........................................................................................................................
   1    9.998       9.383       8.710       7.940       7.055       6.038       4.841       3.427       1.800      2.5501E-03
   2    9.998       9.347       8.631       7.810       6.890       5.902       4.753       3.378       1.779      2.5176E-03
   3    9.998       9.280       8.471       7.522       6.486       5.602       4.576       3.287       1.741      2.4601E-03
   4    9.998       9.200       8.256       7.044       5.589       5.103       4.338       3.181       1.700      2.3984E-03
   5    9.998       9.153       8.098       6.484       2.700       4.511       4.163       3.121       1.681      2.3685E-03
   6    9.998       9.202       8.262       7.051       5.597       5.110       4.344       3.185       1.702      2.4015E-03
   7    9.998       9.287       8.485       7.541       6.507       5.621       4.591       3.297       1.746      2.4679E-03
   8    9.998       9.362       8.659       7.850       6.934       5.944       4.785       3.400       1.789      2.5341E-03
   9    9.999       9.412       8.767       8.021       7.145       6.122       4.906       3.470       1.821      2.5817E-03
  10    9.999       9.436       8.817       8.095       7.233       6.200       4.962       3.504       1.836      2.6058E-03
1
              HEAD IN LAYER   2 AT END OF TIME STEP 100 IN STRESS PERIOD    3
  ---------------------------------------------------------------------------

            1           2           3           4           5           6           7           8           9          10
 ........................................................................................................................
   1    9.998       9.377       8.699       7.926       7.038       6.021       4.825       3.414       1.791      4.9309E-03
   2    9.998       9.341       8.619       7.795       6.873       5.884       4.736       3.365       1.770      4.8717E-03
   3    9.998       9.274       8.460       7.506       6.468       5.584       4.559       3.274       1.732      4.7672E-03
   4    9.998       9.193       8.244       7.026       5.573       5.084       4.321       3.167       1.691      4.6547E-03
   5    9.998       9.146       8.084       6.466       3.130       4.497       4.146       3.108       1.672      4.6003E-03
   6    9.998       9.196       8.249       7.034       5.581       5.091       4.327       3.171       1.694      4.6604E-03
   7    9.998       9.281       8.473       7.525       6.489       5.603       4.574       3.284       1.737      4.7818E-03
   8    9.998       9.357       8.649       7.835       6.918       5.926       4.769       3.387       1.781      4.9023E-03
   9    9.999       9.407       8.758       8.007       7.130       6.106       4.891       3.457       1.812      4.9891E-03
  10    9.999       9.431       8.808       8.082       7.218       6.184       4.948       3.491       1.828      5.0329E-03
1
              HEAD IN LAYER   3 AT END OF TIME STEP 100 IN STRESS PERIOD    3
  ---------------------------------------------------------------------------

            1           2           3           4           5           6           7           8           9          10
 ........................................................................................................................
   1    9.998       9.373       8.692       7.915       7.025       6.007       4.812       3.403       1.784      5.2904E-03
   2    9.998       9.337       8.612       7.784       6.860       5.871       4.723       3.353       1.762      5.2269E-03
   3    9.998       9.269       8.451       7.495       6.454       5.569       4.545       3.262       1.724      5.1146E-03
   4    9.998       9.188       8.235       7.014       5.566       5.070       4.307       3.156       1.683      4.9939E-03
   5    9.998       9.141       8.075       6.459       3.483       4.492       4.132       3.096       1.664      4.9357E-03
   6    9.998       9.191       8.240       7.021       5.574       5.077       4.313       3.160       1.686      5.0002E-03
   7    9.998       9.277       8.465       7.513       6.475       5.589       4.561       3.273       1.730      5.1306E-03
   8    9.998       9.353       8.641       7.825       6.905       5.913       4.757       3.376       1.773      5.2602E-03
   9    9.999       9.403       8.751       7.998       7.118       6.093       4.879       3.447       1.805      5.3537E-03
  10    9.999       9.428       8.801       8.073       7.207       6.172       4.936       3.481       1.821      5.4008E-03
1
              HEAD IN LAYER   4 AT END OF TIME STEP 100 IN STRESS PERIOD    3
  ---------------------------------------------------------------------------

            1           2           3           4           5           6           7           8           9          10
 ........................................................................................................................
   1    9.998       9.371       8.688       7.910       7.019       6.000       4.806       3.397       1.780      5.3191E-03
   2    9.998       9.335       8.608       7.779       6.853       5.864       4.716       3.348       1.758      5.2549E-03
   3    9.998       9.267       8.447       7.489       6.447       5.562       4.538       3.256       1.720      5.1418E-03
   4    9.998       9.186       8.230       7.008       5.564       5.063       4.300       3.150       1.679      5.0202E-03
   5    9.998       9.139       8.070       6.458       3.652       4.491       4.126       3.090       1.660      4.9616E-03
   6    9.998       9.189       8.236       7.015       5.573       5.070       4.306       3.154       1.682      5.0266E-03
   7    9.998       9.275       8.461       7.508       6.468       5.582       4.554       3.267       1.726      5.1580E-03
   8    9.998       9.351       8.638       7.820       6.899       5.907       4.750       3.371       1.769      5.2887E-03
   9    9.999       9.402       8.747       7.993       7.112       6.087       4.873       3.441       1.801      5.3832E-03
  10    9.999       9.426       8.798       8.069       7.202       6.166       4.930       3.476       1.817      5.4308E-03

 HEAD WILL BE SAVED ON UNIT   51 AT END OF TIME STEP  100, STRESS PERIOD    3

 DRAWDOWN WILL BE SAVED ON UNIT   52 AT END OF TIME STEP  100, STRESS PERIOD    3
1
  VOLUMETRIC BUDGET FOR ENTIRE MODEL AT END OF TIME STEP  100, STRESS PERIOD   3
  ------------------------------------------------------------------------------

     CUMULATIVE VOLUMES      L**3       RATES FOR THIS TIME STEP      L**3/T
     ------------------                 ------------------------

           IN:                                      IN:
           ---                                      ---
             STORAGE =      450458.9688               STORAGE =         967.0635
       CONSTANT HEAD =           0.0000         CONSTANT HEAD =           0.0000
               WELLS =           0.0000                 WELLS =           0.0000
     HEAD DEP BOUNDS =       27469.8691       HEAD DEP BOUNDS =         416.7777

            TOTAL IN =      477928.8438              TOTAL IN =        1383.8412

          OUT:                                     OUT:
          ----                                     ----
             STORAGE =           0.0000               STORAGE =           0.0000
       CONSTANT HEAD =           0.0000         CONSTANT HEAD =           0.0000
               WELLS =       50000.0000                 WELLS =         500.0000
     HEAD DEP BOUNDS =      427930.5312       HEAD DEP BOUNDS =         883.8439

           TOTAL OUT =      477930.5312             TOTAL OUT =        1383.8440

            IN - OUT =          -1.6875              IN - OUT =      -2.8076E-03

 PERCENT DISCREPANCY =          -0.00     PERCENT DISCREPANCY =          -0.00






         TIME SUMMARY AT END OF TIME STEP  100 IN STRESS PERIOD    3
                    SECONDS     MINUTES      HOURS       DAYS        YEARS
                    -----------------------------------------------------------
   TIME STEP LENGTH  86400.      1440.0      24.000      1.0000     2.73785E-03
 STRESS PERIOD TIME 8.64000E+06 1.44000E+05  2400.0      100.00     0.27379    
         TOTAL TIME 1.73664E+07 2.89440E+05  4824.0      201.00     0.55031    
1
1
                            STRESS PERIOD NO.    4, LENGTH =   100.0000    
                            -----------------------------------------------

                              NUMBER OF TIME STEPS =   100

                               MULTIPLIER FOR DELT =     1.000

                            INITIAL TIME STEP SIZE =   1.000000    

 WELL NO.  LAYER   ROW   COL   STRESS RATE         
 --------------------------------------------------
      1      1      5      5      -500.0    

      1 WELL 

 REUSING NON-PARAMETER GHB CELLS FROM LAST STRESS PERIOD

     80 GHB CELLS
 
 SOLVING FOR HEAD 

 OUTPUT CONTROL FOR STRESS PERIOD    4   TIME STEP    1
    SAVE HEAD FOR ALL LAYERS
    SAVE DRAWDOWN FOR ALL LAYERS
    SAVE BUDGET
    PRINT HEAD FOR ALL LAYERS
    PRINT BUDGET
 UBDSV1 SAVING "         STORAGE" ON UNIT  53 AT TIME STEP  1, STRESS PERIOD   4
 UBDSV2 SAVING "   CONSTANT HEAD" ON UNIT  53 AT TIME STEP  1, STRESS PERIOD   4
 UBDSV1 SAVING "FLOW RIGHT FACE " ON UNIT  53 AT TIME STEP  1, STRESS PERIOD   4
 UBDSV1 SAVING "FLOW FRONT FACE " ON UNIT  53 AT TIME STEP  1, STRESS PERIOD   4
 UBDSV1 SAVING "FLOW LOWER FACE " ON UNIT  53 AT TIME STEP  1, STRESS PERIOD   4
1
              HEAD IN LAYER   1 AT END OF TIME STEP   1 IN STRESS PERIOD    4
  ---------------------------------------------------------------------------

            1           2           3           4           5           6           7           8           9          10
 ........................................................................................................................
   1    9.998       9.378       8.701       7.927       7.040       6.022       4.827       3.416       1.794      2.5407E-03
   2    9.998       9.342       8.621       7.797       6.875       5.886       4.738       3.367       1.772      2.5080E-03
   3    9.998       9.275       8.461       7.508       6.470       5.585       4.560       3.275       1.734      2.4503E-03
   4    9.998       9.194       8.246       7.029       5.572       5.085       4.322       3.169       1.694      2.3882E-03
   5    9.998       9.148       8.087       6.469       2.681       4.493       4.147       3.109       1.674      2.3584E-03
   6    9.998       9.197       8.251       7.037       5.580       5.092       4.328       3.173       1.696      2.3914E-03
   7    9.998       9.282       8.475       7.527       6.491       5.605       4.576       3.286       1.740      2.4583E-03
   8    9.998       9.358       8.650       7.837       6.920       5.928       4.771       3.389       1.783      2.5250E-03
   9    9.999       9.408       8.759       8.009       7.132       6.108       4.893       3.459       1.815      2.5731E-03
  10    9.999       9.432       8.809       8.084       7.220       6.186       4.950       3.494       1.831      2.5973E-03
1
              HEAD IN LAYER   2 AT END OF TIME STEP   1 IN STRESS PERIOD    4
  ---------------------------------------------------------------------------

            1           2           3           4           5           6           7           8           9          10
 ........................................................................................................................
   1    9.998       9.372       8.690       7.913       7.023       6.005       4.811       3.403       1.785      4.9141E-03
   2    9.998       9.336       8.610       7.782       6.857       5.868       4.722       3.354       1.764      4.8545E-03
   3    9.998       9.269       8.450       7.492       6.452       5.567       4.544       3.262       1.726      4.7494E-03
   4    9.998       9.187       8.233       7.012       5.555       5.066       4.305       3.155       1.685      4.6363E-03
   5    9.998       9.141       8.074       6.451       3.112       4.479       4.130       3.096       1.665      4.5818E-03
   6    9.998       9.190       8.239       7.019       5.564       5.074       4.311       3.159       1.687      4.6422E-03
   7    9.998       9.276       8.464       7.511       6.473       5.587       4.560       3.273       1.731      4.7644E-03
   8    9.998       9.352       8.640       7.823       6.903       5.911       4.756       3.376       1.775      4.8858E-03
   9    9.999       9.403       8.749       7.996       7.116       6.091       4.878       3.447       1.807      4.9735E-03
  10    9.999       9.427       8.800       8.071       7.205       6.171       4.935       3.482       1.823      5.0177E-03
1
              HEAD IN LAYER   3 AT END OF TIME STEP   1 IN STRESS PERIOD    4
  ---------------------------------------------------------------------------

            1           2           3           4           5           6           7           8           9          10
 ........................................................................................................................
   1    9.998       9.369       8.683       7.903       7.010       5.992       4.798       3.392       1.778      5.2726E-03
   2    9.998       9.332       8.602       7.771       6.844       5.855       4.708       3.342       1.756      5.2086E-03
   3    9.998       9.264       8.441       7.481       6.438       5.553       4.530       3.250       1.718      5.0957E-03
   4    9.998       9.183       8.224       6.999       5.549       5.052       4.291       3.144       1.677      4.9744E-03
   5    9.998       9.136       8.064       6.445       3.465       4.474       4.117       3.084       1.657      4.9160E-03
   6    9.998       9.186       8.230       7.007       5.557       5.060       4.298       3.148       1.679      4.9808E-03
   7    9.998       9.272       8.456       7.500       6.459       5.573       4.546       3.261       1.723      5.1120E-03
   8    9.998       9.348       8.633       7.812       6.891       5.898       4.743       3.365       1.767      5.2426E-03
   9    9.999       9.399       8.742       7.986       7.105       6.079       4.866       3.437       1.799      5.3371E-03
  10    9.999       9.424       8.793       8.062       7.194       6.159       4.923       3.471       1.815      5.3847E-03
1
              HEAD IN LAYER   4 AT END OF TIME STEP   1 IN STRESS PERIOD    4
  ---------------------------------------------------------------------------

            1           2           3           4           5           6           7           8           9          10
 ........................................................................................................................
   1    9.998       9.367       8.679       7.897       7.004       5.985       4.791       3.386       1.774      5.3011E-03
   2    9.998       9.330       8.598       7.766       6.838       5.848       4.702       3.337       1.752      5.2366E-03
   3    9.998       9.262       8.437       7.475       6.431       5.545       4.523       3.245       1.714      5.1227E-03
   4    9.998       9.181       8.220       6.993       5.547       5.045       4.284       3.138       1.673      5.0006E-03
   5    9.998       9.133       8.060       6.443       3.633       4.474       4.110       3.078       1.653      4.9418E-03
   6    9.998       9.183       8.225       7.001       5.556       5.053       4.291       3.142       1.675      5.0072E-03
   7    9.998       9.270       8.452       7.494       6.453       5.566       4.540       3.256       1.719      5.1394E-03
   8    9.998       9.346       8.629       7.807       6.885       5.892       4.737       3.360       1.764      5.2712E-03
   9    9.998       9.397       8.739       7.981       7.099       6.073       4.860       3.431       1.796      5.3665E-03
  10    9.999       9.422       8.790       8.058       7.189       6.153       4.917       3.466       1.812      5.4146E-03

 HEAD WILL BE SAVED ON UNIT   51 AT END OF TIME STEP    1, STRESS PERIOD    4

 DRAWDOWN WILL BE SAVED ON UNIT   52 AT END OF TIME STEP    1, STRESS PERIOD    4
1
  VOLUMETRIC BUDGET FOR ENTIRE MODEL AT END OF TIME STEP    1, STRESS PERIOD   4
  ------------------------------------------------------------------------------

     CUMULATIVE VOLUMES      L**3       RATES FOR THIS TIME STEP      L**3/T
     ------------------                 ------------------------

           IN:                                      IN:
           ---                                      ---
             STORAGE =      451419.9375               STORAGE =         960.9661
       CONSTANT HEAD =           0.0000         CONSTANT HEAD =           0.0000
               WELLS =           0.0000                 WELLS =           0.0000
     HEAD DEP BOUNDS =       27889.5801       HEAD DEP BOUNDS =         419.7106

            TOTAL IN =      479309.5312              TOTAL IN =        1380.6766

          OUT:                                     OUT:
          ----                                     ----
             STORAGE =           0.0000               STORAGE =           0.0000
       CONSTANT HEAD =           0.0000         CONSTANT HEAD =           0.0000
               WELLS =       50500.0000                 WELLS =         500.0000
     HEAD DEP BOUNDS =      428811.2188       HEAD DEP BOUNDS =         880.6839

           TOTAL OUT =      479311.2188             TOTAL OUT =        1380.6838

            IN - OUT =          -1.6875              IN - OUT =      -7.2021E-03

 PERCENT DISCREPANCY =          -0.00     PERCENT DISCREPANCY =          -0.00






         TIME SUMMARY AT END OF TIME STEP    1 IN STRESS PERIOD    4
                    SECONDS     MINUTES      HOURS       DAYS        YEARS
                    -----------------------------------------------------------
   TIME STEP LENGTH  86400.      1440.0      24.000      1.0000     2.73785E-03
 STRESS PERIOD TIME  86400.      1440.0      24.000      1.0000     2.73785E-03
         TOTAL TIME 1.74528E+07 2.90880E+05  4848.0      202.00     0.55305    
1
 
 SOLVING FOR HEAD 

 OUTPUT CONTROL FOR STRESS PERIOD    4   TIME STEP    2
    SAVE HEAD FOR ALL LAYERS
    SAVE DRAWDOWN FOR ALL LAYERS
    SAVE BUDGET
    PRINT HEAD FOR ALL LAYERS
    PRINT BUDGET
 UBDSV1 SAVING "         STORAGE" ON UNIT  53 AT TIME STEP  2, STRESS PERIOD   4
 UBDSV2 SAVING "   CONSTANT HEAD" ON UNIT  53 AT TIME STEP  2, STRESS PERIOD   4
 UBDSV1 SAVING "FLOW RIGHT FACE " ON UNIT  53 AT TIME STEP  2, STRESS PERIOD   4
 UBDSV1 SAVING "FLOW FRONT FACE " ON UNIT  53 AT TIME STEP  2, STRESS PERIOD   4
 UBDSV1 SAVING "FLOW LOWER FACE " ON UNIT  53 AT TIME STEP  2, STRESS PERIOD   4
1
              HEAD IN LAYER   1 AT END OF TIME STEP   2 IN STRESS PERIOD    4
  ---------------------------------------------------------------------------

            1           2           3           4           5           6           7           8           9          10
 ........................................................................................................................
   1    9.998       9.373       8.691       7.915       7.024       6.007       4.813       3.405       1.788      2.5315E-03
   2    9.998       9.337       8.611       7.784       6.859       5.870       4.723       3.356       1.766      2.4985E-03
   3    9.998       9.270       8.451       7.495       6.454       5.569       4.545       3.264       1.728      2.4404E-03
   4    9.998       9.189       8.235       7.015       5.555       5.067       4.306       3.157       1.687      2.3781E-03
   5    9.998       9.142       8.076       6.454       2.663       4.475       4.131       3.097       1.667      2.3481E-03
   6    9.998       9.192       8.241       7.022       5.563       5.075       4.312       3.161       1.689      2.3814E-03
   7    9.998       9.277       8.465       7.514       6.475       5.588       4.561       3.275       1.733      2.4488E-03
   8    9.998       9.353       8.641       7.825       6.905       5.913       4.757       3.378       1.777      2.5159E-03
   9    9.999       9.404       8.750       7.997       7.118       6.093       4.880       3.449       1.809      2.5645E-03
  10    9.999       9.428       8.801       8.073       7.207       6.173       4.937       3.484       1.825      2.5889E-03
1
              HEAD IN LAYER   2 AT END OF TIME STEP   2 IN STRESS PERIOD    4
  ---------------------------------------------------------------------------

            1           2           3           4           5           6           7           8           9          10
 ........................................................................................................................
   1    9.998       9.368       8.681       7.900       7.008       5.990       4.797       3.392       1.779      4.8974E-03
   2    9.998       9.331       8.600       7.769       6.842       5.852       4.707       3.342       1.758      4.8375E-03
   3    9.998       9.263       8.440       7.479       6.435       5.550       4.529       3.250       1.719      4.7316E-03
   4    9.998       9.182       8.223       6.997       5.538       5.049       4.290       3.143       1.678      4.6180E-03
   5    9.998       9.135       8.063       6.437       3.093       4.462       4.114       3.084       1.658      4.5634E-03
   6    9.998       9.185       8.228       7.005       5.547       5.057       4.296       3.148       1.680      4.6241E-03
   7    9.998       9.271       8.454       7.498       6.457       5.571       4.545       3.262       1.725      4.7471E-03
   8    9.998       9.347       8.631       7.810       6.888       5.896       4.742       3.366       1.769      4.8695E-03
   9    9.999       9.398       8.741       7.984       7.102       6.077       4.865       3.437       1.801      4.9580E-03
  10    9.999       9.423       8.792       8.060       7.192       6.157       4.923       3.472       1.817      5.0026E-03
1
              HEAD IN LAYER   3 AT END OF TIME STEP   2 IN STRESS PERIOD    4
  ---------------------------------------------------------------------------

            1           2           3           4           5           6           7           8           9          10
 ........................................................................................................................
   1    9.998       9.364       8.673       7.890       6.995       5.976       4.784       3.381       1.772      5.2549E-03
   2    9.998       9.327       8.593       7.758       6.829       5.839       4.694       3.331       1.750      5.1904E-03
   3    9.998       9.259       8.431       7.467       6.422       5.536       4.515       3.239       1.711      5.0768E-03
   4    9.998       9.177       8.214       6.985       5.532       5.035       4.276       3.132       1.670      4.9550E-03
   5    9.998       9.130       8.054       6.430       3.446       4.457       4.101       3.072       1.651      4.8964E-03
   6    9.998       9.180       8.220       6.993       5.540       5.043       4.282       3.136       1.673      4.9616E-03
   7    9.998       9.267       8.446       7.487       6.444       5.557       4.532       3.250       1.717      5.0937E-03
   8    9.998       9.343       8.624       7.800       6.876       5.883       4.729       3.355       1.762      5.2253E-03
   9    9.998       9.395       8.734       7.974       7.091       6.065       4.853       3.427       1.794      5.3205E-03
  10    9.999       9.419       8.785       8.051       7.181       6.145       4.911       3.462       1.810      5.3687E-03
1
              HEAD IN LAYER   4 AT END OF TIME STEP   2 IN STRESS PERIOD    4
  ---------------------------------------------------------------------------

            1           2           3           4           5           6           7           8           9          10
 ........................................................................................................................
   1    9.998       9.362       8.670       7.885       6.989       5.970       4.778       3.376       1.768      5.2833E-03
   2    9.998       9.325       8.589       7.752       6.822       5.832       4.687       3.326       1.746      5.2184E-03
   3    9.998       9.257       8.427       7.461       6.415       5.529       4.508       3.233       1.708      5.1039E-03
   4    9.998       9.175       8.210       6.979       5.530       5.028       4.269       3.126       1.666      4.9811E-03
   5    9.998       9.128       8.049       6.428       3.615       4.456       4.094       3.066       1.647      4.9222E-03
   6    9.998       9.178       8.215       6.987       5.539       5.036       4.276       3.130       1.669      4.9879E-03
   7    9.998       9.265       8.442       7.481       6.437       5.550       4.525       3.245       1.713      5.1210E-03
   8    9.998       9.341       8.620       7.795       6.870       5.877       4.723       3.349       1.758      5.2537E-03
   9    9.998       9.393       8.731       7.970       7.085       6.059       4.847       3.421       1.790      5.3499E-03
  10    9.999       9.418       8.782       8.047       7.176       6.139       4.905       3.456       1.806      5.3985E-03

 HEAD WILL BE SAVED ON UNIT   51 AT END OF TIME STEP    2, STRESS PERIOD    4

 DRAWDOWN WILL BE SAVED ON UNIT   52 AT END OF TIME STEP    2, STRESS PERIOD    4
1
  VOLUMETRIC BUDGET FOR ENTIRE MODEL AT END OF TIME STEP    2, STRESS PERIOD   4
  ------------------------------------------------------------------------------

     CUMULATIVE VOLUMES      L**3       RATES FOR THIS TIME STEP      L**3/T
     ------------------                 ------------------------

           IN:                                      IN:
           ---                                      ---
             STORAGE =      452374.8438               STORAGE =         954.9048
       CONSTANT HEAD =           0.0000         CONSTANT HEAD =           0.0000
               WELLS =           0.0000                 WELLS =           0.0000
     HEAD DEP BOUNDS =       28312.2207       HEAD DEP BOUNDS =         422.6414

            TOTAL IN =      480687.0625              TOTAL IN =        1377.5461

          OUT:                                     OUT:
          ----                                     ----
             STORAGE =           0.0000               STORAGE =           0.0000
       CONSTANT HEAD =           0.0000         CONSTANT HEAD =           0.0000
               WELLS =       51000.0000                 WELLS =         500.0000
     HEAD DEP BOUNDS =      429688.7500       HEAD DEP BOUNDS =         877.5435

           TOTAL OUT =      480688.7500             TOTAL OUT =        1377.5435

            IN - OUT =          -1.6875              IN - OUT =       2.6855E-03

 PERCENT DISCREPANCY =          -0.00     PERCENT DISCREPANCY =           0.00






         TIME SUMMARY AT END OF TIME STEP    2 IN STRESS PERIOD    4
                    SECONDS     MINUTES      HOURS       DAYS        YEARS
                    -----------------------------------------------------------
   TIME STEP LENGTH  86400.      1440.0      24.000      1.0000     2.73785E-03
 STRESS PERIOD TIME 1.72800E+05  2880.0      48.000      2.0000     5.47570E-03
         TOTAL TIME 1.75392E+07 2.92320E+05  4872.0      203.00     0.55578    
1
 
 SOLVING FOR HEAD 

 OUTPUT CONTROL FOR STRESS PERIOD    4   TIME STEP    3
    SAVE HEAD FOR ALL LAYERS
    SAVE DRAWDOWN FOR ALL LAYERS
    SAVE BUDGET
    PRINT HEAD FOR ALL LAYERS
    PRINT BUDGET
 UBDSV1 SAVING "         STORAGE" ON UNIT  53 AT TIME STEP  3, STRESS PERIOD   4
 UBDSV2 SAVING "   CONSTANT HEAD" ON UNIT  53 AT TIME STEP  3, STRESS PERIOD   4
 UBDSV1 SAVING "FLOW RIGHT FACE " ON UNIT  53 AT TIME STEP  3, STRESS PERIOD   4
 UBDSV1 SAVING "FLOW FRONT FACE " ON UNIT  53 AT TIME STEP  3, STRESS PERIOD   4
 UBDSV1 SAVING "FLOW LOWER FACE " ON UNIT  53 AT TIME STEP  3, STRESS PERIOD   4
1
              HEAD IN LAYER   1 AT END OF TIME STEP   3 IN STRESS PERIOD    4
  ---------------------------------------------------------------------------

            1           2           3           4           5           6           7           8           9          10
 ........................................................................................................................
   1    9.998       9.369       8.682       7.902       7.010       5.992       4.799       3.394       1.782      2.5224E-03
   2    9.998       9.332       8.602       7.770       6.844       5.854       4.709       3.344       1.760      2.4892E-03
   3    9.998       9.265       8.441       7.481       6.438       5.552       4.530       3.252       1.722      2.4307E-03
   4    9.998       9.184       8.225       7.000       5.538       5.050       4.291       3.145       1.680      2.3682E-03
   5    9.998       9.137       8.066       6.439       2.644       4.457       4.115       3.085       1.660      2.3380E-03
   6    9.998       9.186       8.231       7.008       5.546       5.058       4.297       3.149       1.682      2.3714E-03
   7    9.998       9.272       8.456       7.500       6.459       5.572       4.547       3.263       1.727      2.4393E-03
   8    9.998       9.348       8.632       7.812       6.890       5.898       4.744       3.368       1.772      2.5068E-03
   9    9.999       9.399       8.742       7.986       7.104       6.079       4.867       3.439       1.804      2.5559E-03
  10    9.999       9.424       8.793       8.062       7.194       6.159       4.925       3.474       1.820      2.5806E-03
1
              HEAD IN LAYER   2 AT END OF TIME STEP   3 IN STRESS PERIOD    4
  ---------------------------------------------------------------------------

            1           2           3           4           5           6           7           8           9          10
 ........................................................................................................................
   1    9.998       9.363       8.672       7.887       6.993       5.974       4.783       3.382       1.773      4.8809E-03
   2    9.998       9.326       8.591       7.756       6.826       5.837       4.693       3.331       1.751      4.8205E-03
   3    9.998       9.258       8.430       7.465       6.419       5.534       4.514       3.239       1.713      4.7141E-03
   4    9.998       9.177       8.213       6.983       5.521       5.032       4.274       3.131       1.672      4.6000E-03
   5    9.998       9.130       8.053       6.422       3.075       4.444       4.099       3.072       1.652      4.5451E-03
   6    9.998       9.180       8.218       6.991       5.530       5.040       4.281       3.136       1.674      4.6062E-03
   7    9.998       9.266       8.444       7.485       6.441       5.555       4.530       3.250       1.719      4.7299E-03
   8    9.998       9.343       8.622       7.798       6.874       5.881       4.728       3.355       1.763      4.8532E-03
   9    9.998       9.394       8.732       7.972       7.089       6.063       4.852       3.427       1.796      4.9425E-03
  10    9.999       9.419       8.784       8.049       7.179       6.143       4.910       3.462       1.812      4.9877E-03
1
              HEAD IN LAYER   3 AT END OF TIME STEP   3 IN STRESS PERIOD    4
  ---------------------------------------------------------------------------

            1           2           3           4           5           6           7           8           9          10
 ........................................................................................................................
   1    9.998       9.359       8.664       7.877       6.980       5.961       4.770       3.371       1.766      5.2372E-03
   2    9.998       9.322       8.583       7.745       6.814       5.823       4.680       3.320       1.744      5.1724E-03
   3    9.998       9.254       8.422       7.453       6.406       5.520       4.500       3.228       1.705      5.0581E-03
   4    9.998       9.172       8.204       6.971       5.515       5.018       4.260       3.120       1.664      4.9357E-03
   5    9.998       9.125       8.043       6.415       3.428       4.439       4.085       3.060       1.644      4.8770E-03
   6    9.998       9.175       8.210       6.979       5.524       5.026       4.267       3.125       1.666      4.9426E-03
   7    9.998       9.262       8.436       7.474       6.428       5.541       4.517       3.239       1.711      5.0754E-03
   8    9.998       9.339       8.615       7.788       6.862       5.868       4.716       3.344       1.756      5.2080E-03
   9    9.998       9.390       8.726       7.963       7.077       6.051       4.840       3.417       1.788      5.3041E-03
  10    9.999       9.415       8.777       8.040       7.168       6.132       4.898       3.452       1.805      5.3527E-03
1
              HEAD IN LAYER   4 AT END OF TIME STEP   3 IN STRESS PERIOD    4
  ---------------------------------------------------------------------------

            1           2           3           4           5           6           7           8           9          10
 ........................................................................................................................
   1    9.998       9.357       8.661       7.872       6.974       5.954       4.764       3.365       1.762      5.2656E-03
   2    9.998       9.320       8.579       7.739       6.807       5.816       4.673       3.315       1.740      5.2003E-03
   3    9.998       9.252       8.417       7.448       6.399       5.513       4.494       3.222       1.701      5.0851E-03
   4    9.998       9.170       8.199       6.965       5.514       5.011       4.254       3.114       1.660      4.9618E-03
   5    9.998       9.123       8.039       6.414       3.598       4.439       4.079       3.055       1.640      4.9027E-03
   6    9.998       9.173       8.205       6.973       5.522       5.019       4.260       3.119       1.662      4.9688E-03
   7    9.998       9.260       8.432       7.468       6.422       5.534       4.511       3.234       1.707      5.1027E-03
   8    9.998       9.337       8.611       7.783       6.856       5.862       4.709       3.339       1.752      5.2364E-03
   9    9.998       9.389       8.722       7.958       7.072       6.045       4.834       3.411       1.784      5.3334E-03
  10    9.999       9.414       8.774       8.035       7.163       6.126       4.893       3.447       1.801      5.3825E-03

 HEAD WILL BE SAVED ON UNIT   51 AT END OF TIME STEP    3, STRESS PERIOD    4

 DRAWDOWN WILL BE SAVED ON UNIT   52 AT END OF TIME STEP    3, STRESS PERIOD    4
1
  VOLUMETRIC BUDGET FOR ENTIRE MODEL AT END OF TIME STEP    3, STRESS PERIOD   4
  ------------------------------------------------------------------------------

     CUMULATIVE VOLUMES      L**3       RATES FOR THIS TIME STEP      L**3/T
     ------------------                 ------------------------

           IN:                                      IN:
           ---                                      ---
             STORAGE =      453323.7188               STORAGE =         948.8883
       CONSTANT HEAD =           0.0000         CONSTANT HEAD =           0.0000
               WELLS =           0.0000                 WELLS =           0.0000
     HEAD DEP BOUNDS =       28737.7461       HEAD DEP BOUNDS =         425.5245

            TOTAL IN =      482061.4688              TOTAL IN =        1374.4128

          OUT:                                     OUT:
          ----                                     ----
             STORAGE =           0.0000               STORAGE =           0.0000
       CONSTANT HEAD =           0.0000         CONSTANT HEAD =           0.0000
               WELLS =       51500.0000                 WELLS =         500.0000
     HEAD DEP BOUNDS =      430563.1875       HEAD DEP BOUNDS =         874.4246

           TOTAL OUT =      482063.1875             TOTAL OUT =        1374.4246

            IN - OUT =          -1.7188              IN - OUT =      -1.1719E-02

 PERCENT DISCREPANCY =          -0.00     PERCENT DISCREPANCY =          -0.00






         TIME SUMMARY AT END OF TIME STEP    3 IN STRESS PERIOD    4
                    SECONDS     MINUTES      HOURS       DAYS        YEARS
                    -----------------------------------------------------------
   TIME STEP LENGTH  86400.      1440.0      24.000      1.0000     2.73785E-03
 STRESS PERIOD TIME 2.59200E+05  4320.0      72.000      3.0000     8.21355E-03
         TOTAL TIME 1.76256E+07 2.93760E+05  4896.0      204.00     0.55852    
1
 
 SOLVING FOR HEAD 

 OUTPUT CONTROL FOR STRESS PERIOD    4   TIME STEP    4
    SAVE HEAD FOR ALL LAYERS
    SAVE DRAWDOWN FOR ALL LAYERS
    SAVE BUDGET
    PRINT HEAD FOR ALL LAYERS
    PRINT BUDGET
 UBDSV1 SAVING "         STORAGE" ON UNIT  53 AT TIME STEP  4, STRESS PERIOD   4
 UBDSV2 SAVING "   CONSTANT HEAD" ON UNIT  53 AT TIME STEP  4, STRESS PERIOD   4
 UBDSV1 SAVING "FLOW RIGHT FACE " ON UNIT  53 AT TIME STEP  4, STRESS PERIOD   4
 UBDSV1 SAVING "FLOW FRONT FACE " ON UNIT  53 AT TIME STEP  4, STRESS PERIOD   4
 UBDSV1 SAVING "FLOW LOWER FACE " ON UNIT  53 AT TIME STEP  4, STRESS PERIOD   4
1
              HEAD IN LAYER   1 AT END OF TIME STEP   4 IN STRESS PERIOD    4
  ---------------------------------------------------------------------------

            1           2           3           4           5           6           7           8           9          10
 ........................................................................................................................
   1    9.998       9.364       8.673       7.889       6.995       5.976       4.785       3.384       1.776      2.5132E-03
   2    9.998       9.328       8.592       7.757       6.828       5.838       4.695       3.333       1.754      2.4798E-03
   3    9.998       9.259       8.432       7.467       6.421       5.535       4.515       3.241       1.715      2.4210E-03
   4    9.998       9.178       8.215       6.986       5.521       5.033       4.275       3.133       1.674      2.3582E-03
   5    9.998       9.131       8.055       6.425       2.626       4.440       4.099       3.073       1.654      2.3282E-03
   6    9.998       9.181       8.220       6.994       5.529       5.041       4.282       3.137       1.676      2.3617E-03
   7    9.998       9.267       8.446       7.487       6.444       5.556       4.532       3.252       1.721      2.4298E-03
   8    9.998       9.344       8.623       7.800       6.876       5.883       4.730       3.357       1.766      2.4979E-03
   9    9.999       9.395       8.734       7.974       7.091       6.065       4.854       3.429       1.798      2.5473E-03
  10    9.999       9.419       8.785       8.051       7.181       6.145       4.912       3.464       1.814      2.5724E-03
1
              HEAD IN LAYER   2 AT END OF TIME STEP   4 IN STRESS PERIOD    4
  ---------------------------------------------------------------------------

            1           2           3           4           5           6           7           8           9          10
 ........................................................................................................................
   1    9.998       9.358       8.662       7.875       6.978       5.959       4.769       3.371       1.767      4.8644E-03
   2    9.998       9.322       8.582       7.743       6.811       5.821       4.678       3.320       1.745      4.8036E-03
   3    9.998       9.253       8.420       7.451       6.403       5.517       4.499       3.228       1.707      4.6966E-03
   4    9.998       9.171       8.202       6.969       5.505       5.015       4.259       3.120       1.665      4.5820E-03
   5    9.998       9.124       8.042       6.408       3.057       4.427       4.083       3.060       1.645      4.5270E-03
   6    9.998       9.175       8.208       6.977       5.513       5.023       4.265       3.124       1.668      4.5884E-03
   7    9.998       9.261       8.435       7.472       6.426       5.539       4.516       3.239       1.713      4.7128E-03
   8    9.998       9.338       8.613       7.786       6.860       5.866       4.715       3.345       1.757      4.8371E-03
   9    9.998       9.390       8.724       7.961       7.075       6.049       4.839       3.417       1.790      4.9272E-03
  10    9.999       9.415       8.776       8.038       7.166       6.130       4.898       3.453       1.806      4.9728E-03
1
              HEAD IN LAYER   3 AT END OF TIME STEP   4 IN STRESS PERIOD    4
  ---------------------------------------------------------------------------

            1           2           3           4           5           6           7           8           9          10
 ........................................................................................................................
   1    9.998       9.354       8.655       7.865       6.966       5.946       4.756       3.360       1.760      5.2196E-03
   2    9.998       9.318       8.574       7.732       6.798       5.807       4.665       3.309       1.738      5.1544E-03
   3    9.998       9.249       8.412       7.440       6.390       5.503       4.485       3.216       1.699      5.0395E-03
   4    9.998       9.167       8.194       6.957       5.498       5.001       4.245       3.108       1.657      4.9166E-03
   5    9.998       9.120       8.033       6.401       3.411       4.422       4.070       3.048       1.638      4.8577E-03
   6    9.998       9.170       8.200       6.965       5.507       5.009       4.252       3.113       1.660      4.9237E-03
   7    9.998       9.257       8.427       7.460       6.413       5.525       4.503       3.228       1.705      5.0573E-03
   8    9.998       9.334       8.606       7.776       6.847       5.853       4.702       3.334       1.750      5.1908E-03
   9    9.998       9.386       8.717       7.951       7.064       6.037       4.827       3.407       1.783      5.2878E-03
  10    9.999       9.411       8.769       8.029       7.155       6.118       4.886       3.442       1.799      5.3369E-03
1
              HEAD IN LAYER   4 AT END OF TIME STEP   4 IN STRESS PERIOD    4
  ---------------------------------------------------------------------------

            1           2           3           4           5           6           7           8           9          10
 ........................................................................................................................
   1    9.998       9.352       8.651       7.859       6.960       5.939       4.750       3.354       1.756      5.2480E-03
   2    9.998       9.316       8.570       7.726       6.792       5.801       4.659       3.304       1.734      5.1822E-03
   3    9.998       9.247       8.408       7.434       6.383       5.496       4.479       3.211       1.695      5.0665E-03
   4    9.998       9.165       8.189       6.951       5.497       4.994       4.238       3.103       1.654      4.9427E-03
   5    9.998       9.117       8.028       6.400       3.580       4.421       4.063       3.043       1.634      4.8834E-03
   6    9.998       9.168       8.195       6.959       5.506       5.002       4.245       3.107       1.656      4.9498E-03
   7    9.998       9.255       8.423       7.455       6.406       5.518       4.496       3.223       1.701      5.0845E-03
   8    9.998       9.332       8.602       7.771       6.841       5.847       4.696       3.329       1.746      5.2192E-03
   9    9.998       9.384       8.714       7.947       7.058       6.031       4.821       3.402       1.779      5.3170E-03
  10    9.999       9.409       8.766       8.024       7.150       6.112       4.880       3.437       1.796      5.3666E-03

 HEAD WILL BE SAVED ON UNIT   51 AT END OF TIME STEP    4, STRESS PERIOD    4

 DRAWDOWN WILL BE SAVED ON UNIT   52 AT END OF TIME STEP    4, STRESS PERIOD    4
1
  VOLUMETRIC BUDGET FOR ENTIRE MODEL AT END OF TIME STEP    4, STRESS PERIOD   4
  ------------------------------------------------------------------------------

     CUMULATIVE VOLUMES      L**3       RATES FOR THIS TIME STEP      L**3/T
     ------------------                 ------------------------

           IN:                                      IN:
           ---                                      ---
             STORAGE =      454266.6250               STORAGE =         942.9156
       CONSTANT HEAD =           0.0000         CONSTANT HEAD =           0.0000
               WELLS =           0.0000                 WELLS =           0.0000
     HEAD DEP BOUNDS =       29166.1543       HEAD DEP BOUNDS =         428.4075

            TOTAL IN =      483432.7812              TOTAL IN =        1371.3231

          OUT:                                     OUT:
          ----                                     ----
             STORAGE =           0.0000               STORAGE =           0.0000
       CONSTANT HEAD =           0.0000         CONSTANT HEAD =           0.0000
               WELLS =       52000.0000                 WELLS =         500.0000
     HEAD DEP BOUNDS =      431434.5000       HEAD DEP BOUNDS =         871.3265

           TOTAL OUT =      483434.5000             TOTAL OUT =        1371.3265

            IN - OUT =          -1.7188              IN - OUT =      -3.4180E-03

 PERCENT DISCREPANCY =          -0.00     PERCENT DISCREPANCY =          -0.00






         TIME SUMMARY AT END OF TIME STEP    4 IN STRESS PERIOD    4
                    SECONDS     MINUTES      HOURS       DAYS        YEARS
                    -----------------------------------------------------------
   TIME STEP LENGTH  86400.      1440.0      24.000      1.0000     2.73785E-03
 STRESS PERIOD TIME 3.45600E+05  5760.0      96.000      4.0000     1.09514E-02
         TOTAL TIME 1.77120E+07 2.95200E+05  4920.0      205.00     0.56126    
1
 
 SOLVING FOR HEAD 

 OUTPUT CONTROL FOR STRESS PERIOD    4   TIME STEP    5
    SAVE HEAD FOR ALL LAYERS
    SAVE DRAWDOWN FOR ALL LAYERS
    SAVE BUDGET
    PRINT HEAD FOR ALL LAYERS
    PRINT BUDGET
 UBDSV1 SAVING "         STORAGE" ON UNIT  53 AT TIME STEP  5, STRESS PERIOD   4
 UBDSV2 SAVING "   CONSTANT HEAD" ON UNIT  53 AT TIME STEP  5, STRESS PERIOD   4
 UBDSV1 SAVING "FLOW RIGHT FACE " ON UNIT  53 AT TIME STEP  5, STRESS PERIOD   4
 UBDSV1 SAVING "FLOW FRONT FACE " ON UNIT  53 AT TIME STEP  5, STRESS PERIOD   4
 UBDSV1 SAVING "FLOW LOWER FACE " ON UNIT  53 AT TIME STEP  5, STRESS PERIOD   4
1
              HEAD IN LAYER   1 AT END OF TIME STEP   5 IN STRESS PERIOD    4
  ---------------------------------------------------------------------------

            1           2           3           4           5           6           7           8           9          10
 ........................................................................................................................
   1    9.998       9.359       8.664       7.877       6.980       5.961       4.771       3.373       1.770      2.5040E-03
   2    9.998       9.323       8.583       7.744       6.813       5.823       4.680       3.322       1.748      2.4704E-03
   3    9.998       9.254       8.422       7.453       6.405       5.519       4.500       3.229       1.709      2.4114E-03
   4    9.998       9.173       8.205       6.972       5.504       5.016       4.260       3.121       1.667      2.3484E-03
   5    9.998       9.126       8.045       6.410       2.608       4.422       4.084       3.061       1.647      2.3181E-03
   6    9.998       9.176       8.210       6.980       5.513       5.024       4.266       3.126       1.670      2.3518E-03
   7    9.998       9.262       8.437       7.474       6.428       5.540       4.517       3.241       1.715      2.4204E-03
   8    9.998       9.339       8.615       7.788       6.861       5.868       4.716       3.347       1.760      2.4890E-03
   9    9.999       9.390       8.725       7.962       7.077       6.051       4.841       3.419       1.792      2.5388E-03
  10    9.999       9.415       8.777       8.039       7.168       6.132       4.900       3.455       1.809      2.5641E-03
1
              HEAD IN LAYER   2 AT END OF TIME STEP   5 IN STRESS PERIOD    4
  ---------------------------------------------------------------------------

            1           2           3           4           5           6           7           8           9          10
 ........................................................................................................................
   1    9.998       9.353       8.653       7.862       6.963       5.944       4.755       3.360       1.761      4.8479E-03
   2    9.998       9.317       8.572       7.730       6.796       5.805       4.664       3.310       1.739      4.7868E-03
   3    9.998       9.248       8.410       7.438       6.387       5.501       4.484       3.216       1.700      4.6792E-03
   4    9.998       9.166       8.192       6.955       5.488       4.998       4.243       3.108       1.659      4.5641E-03
   5    9.998       9.119       8.032       6.393       3.039       4.409       4.068       3.048       1.639      4.5090E-03
   6    9.998       9.169       8.198       6.963       5.497       5.006       4.250       3.113       1.661      4.5707E-03
   7    9.998       9.256       8.425       7.458       6.410       5.523       4.502       3.228       1.706      4.6959E-03
   8    9.998       9.333       8.604       7.773       6.845       5.851       4.701       3.334       1.752      4.8210E-03
   9    9.998       9.385       8.716       7.949       7.062       6.035       4.827       3.407       1.784      4.9119E-03
  10    9.999       9.410       8.768       8.027       7.153       6.116       4.885       3.443       1.801      4.9579E-03
1
              HEAD IN LAYER   3 AT END OF TIME STEP   5 IN STRESS PERIOD    4
  ---------------------------------------------------------------------------

            1           2           3           4           5           6           7           8           9          10
 ........................................................................................................................
   1    9.998       9.349       8.646       7.852       6.951       5.931       4.742       3.349       1.754      5.2022E-03
   2    9.998       9.313       8.565       7.719       6.783       5.792       4.651       3.298       1.732      5.1365E-03
   3    9.998       9.244       8.402       7.426       6.374       5.487       4.471       3.205       1.693      5.0211E-03
   4    9.998       9.162       8.183       6.943       5.482       4.984       4.230       3.097       1.651      4.8976E-03
   5    9.998       9.114       8.023       6.387       3.393       4.405       4.054       3.037       1.631      4.8386E-03
   6    9.998       9.165       8.190       6.951       5.491       4.992       4.237       3.102       1.653      4.9049E-03
   7    9.998       9.252       8.418       7.447       6.397       5.509       4.489       3.217       1.699      5.0392E-03
   8    9.998       9.330       8.597       7.763       6.833       5.839       4.689       3.324       1.744      5.1737E-03
   9    9.998       9.382       8.709       7.940       7.051       6.023       4.815       3.397       1.777      5.2715E-03
  10    9.999       9.407       8.761       8.018       7.142       6.105       4.874       3.433       1.794      5.3211E-03
1
              HEAD IN LAYER   4 AT END OF TIME STEP   5 IN STRESS PERIOD    4
  ---------------------------------------------------------------------------

            1           2           3           4           5           6           7           8           9          10
 ........................................................................................................................
   1    9.998       9.347       8.642       7.847       6.945       5.924       4.736       3.344       1.750      5.2305E-03
   2    9.998       9.311       8.561       7.714       6.777       5.785       4.645       3.293       1.728      5.1643E-03
   3    9.998       9.242       8.398       7.421       6.367       5.480       4.464       3.199       1.689      5.0480E-03
   4    9.998       9.159       8.179       6.937       5.480       4.977       4.223       3.091       1.647      4.9236E-03
   5    9.998       9.112       8.018       6.385       3.562       4.404       4.048       3.031       1.627      4.8642E-03
   6    9.998       9.163       8.185       6.945       5.490       4.986       4.230       3.096       1.650      4.9310E-03
   7    9.998       9.250       8.414       7.442       6.391       5.502       4.482       3.212       1.695      5.0664E-03
   8    9.998       9.328       8.593       7.758       6.827       5.832       4.682       3.318       1.740      5.2020E-03
   9    9.998       9.380       8.706       7.935       7.045       6.017       4.809       3.392       1.774      5.3007E-03
  10    9.999       9.405       8.758       8.013       7.137       6.099       4.868       3.428       1.790      5.3508E-03

 HEAD WILL BE SAVED ON UNIT   51 AT END OF TIME STEP    5, STRESS PERIOD    4

 DRAWDOWN WILL BE SAVED ON UNIT   52 AT END OF TIME STEP    5, STRESS PERIOD    4
1
  VOLUMETRIC BUDGET FOR ENTIRE MODEL AT END OF TIME STEP    5, STRESS PERIOD   4
  ------------------------------------------------------------------------------

     CUMULATIVE VOLUMES      L**3       RATES FOR THIS TIME STEP      L**3/T
     ------------------                 ------------------------

           IN:                                      IN:
           ---                                      ---
             STORAGE =      455203.5938               STORAGE =         936.9648
       CONSTANT HEAD =           0.0000         CONSTANT HEAD =           0.0000
               WELLS =           0.0000                 WELLS =           0.0000
     HEAD DEP BOUNDS =       29597.4355       HEAD DEP BOUNDS =         431.2817

            TOTAL IN =      484801.0312              TOTAL IN =        1368.2466

          OUT:                                     OUT:
          ----                                     ----
             STORAGE =           0.0000               STORAGE =           0.0000
       CONSTANT HEAD =           0.0000         CONSTANT HEAD =           0.0000
               WELLS =       52500.0000                 WELLS =         500.0000
     HEAD DEP BOUNDS =      432302.7500       HEAD DEP BOUNDS =         868.2447

           TOTAL OUT =      484802.7500             TOTAL OUT =        1368.2446

            IN - OUT =          -1.7188              IN - OUT =       1.9531E-03

 PERCENT DISCREPANCY =          -0.00     PERCENT DISCREPANCY =           0.00






         TIME SUMMARY AT END OF TIME STEP    5 IN STRESS PERIOD    4
                    SECONDS     MINUTES      HOURS       DAYS        YEARS
                    -----------------------------------------------------------
   TIME STEP LENGTH  86400.      1440.0      24.000      1.0000     2.73785E-03
 STRESS PERIOD TIME 4.32000E+05  7200.0      120.00      5.0000     1.36893E-02
         TOTAL TIME 1.77984E+07 2.96640E+05  4944.0      206.00     0.56400    
1
 
 SOLVING FOR HEAD 

 OUTPUT CONTROL FOR STRESS PERIOD    4   TIME STEP    6
    SAVE HEAD FOR ALL LAYERS
    SAVE DRAWDOWN FOR ALL LAYERS
    SAVE BUDGET
    PRINT HEAD FOR ALL LAYERS
    PRINT BUDGET
 UBDSV1 SAVING "         STORAGE" ON UNIT  53 AT TIME STEP  6, STRESS PERIOD   4
 UBDSV2 SAVING "   CONSTANT HEAD" ON UNIT  53 AT TIME STEP  6, STRESS PERIOD   4
 UBDSV1 SAVING "FLOW RIGHT FACE " ON UNIT  53 AT TIME STEP  6, STRESS PERIOD   4
 UBDSV1 SAVING "FLOW FRONT FACE " ON UNIT  53 AT TIME STEP  6, STRESS PERIOD   4
 UBDSV1 SAVING "FLOW LOWER FACE " ON UNIT  53 AT TIME STEP  6, STRESS PERIOD   4
1
              HEAD IN LAYER   1 AT END OF TIME STEP   6 IN STRESS PERIOD    4
  ---------------------------------------------------------------------------

            1           2           3           4           5           6           7           8           9          10
 ........................................................................................................................
   1    9.998       9.354       8.655       7.864       6.965       5.946       4.757       3.362       1.764      2.4950E-03
   2    9.998       9.318       8.574       7.731       6.798       5.807       4.666       3.311       1.742      2.4611E-03
   3    9.998       9.249       8.412       7.440       6.390       5.503       4.486       3.218       1.703      2.4020E-03
   4    9.998       9.168       8.194       6.958       5.487       4.999       4.244       3.110       1.661      2.3385E-03
   5    9.998       9.121       8.035       6.396       2.590       4.405       4.068       3.049       1.641      2.3083E-03
   6    9.998       9.171       8.200       6.966       5.496       5.007       4.251       3.114       1.663      2.3422E-03
   7    9.998       9.257       8.427       7.461       6.413       5.524       4.503       3.230       1.709      2.4112E-03
   8    9.998       9.334       8.606       7.775       6.847       5.853       4.703       3.336       1.754      2.4802E-03
   9    9.998       9.386       8.717       7.951       7.064       6.037       4.829       3.409       1.787      2.5304E-03
  10    9.999       9.411       8.769       8.028       7.155       6.118       4.887       3.445       1.804      2.5560E-03
1
              HEAD IN LAYER   2 AT END OF TIME STEP   6 IN STRESS PERIOD    4
  ---------------------------------------------------------------------------

            1           2           3           4           5           6           7           8           9          10
 ........................................................................................................................
   1    9.998       9.349       8.644       7.850       6.949       5.929       4.741       3.350       1.755      4.8316E-03
   2    9.998       9.312       8.563       7.717       6.781       5.790       4.650       3.299       1.733      4.7701E-03
   3    9.998       9.243       8.400       7.424       6.372       5.485       4.469       3.205       1.694      4.6620E-03
   4    9.998       9.161       8.182       6.941       5.471       4.981       4.228       3.096       1.652      4.5464E-03
   5    9.998       9.114       8.022       6.379       3.021       4.392       4.052       3.036       1.632      4.4911E-03
   6    9.998       9.164       8.188       6.949       5.481       4.990       4.235       3.101       1.655      4.5532E-03
   7    9.998       9.251       8.416       7.445       6.395       5.507       4.487       3.217       1.700      4.6791E-03
   8    9.998       9.329       8.595       7.761       6.831       5.837       4.688       3.324       1.746      4.8051E-03
   9    9.998       9.381       8.708       7.938       7.048       6.021       4.814       3.397       1.779      4.8967E-03
  10    9.999       9.406       8.760       8.016       7.140       6.103       4.873       3.433       1.796      4.9432E-03
1
              HEAD IN LAYER   3 AT END OF TIME STEP   6 IN STRESS PERIOD    4
  ---------------------------------------------------------------------------

            1           2           3           4           5           6           7           8           9          10
 ........................................................................................................................
   1    9.998       9.345       8.637       7.840       6.937       5.916       4.729       3.339       1.748      5.1848E-03
   2    9.998       9.308       8.555       7.706       6.768       5.776       4.637       3.288       1.726      5.1188E-03
   3    9.998       9.239       8.392       7.413       6.358       5.471       4.456       3.194       1.687      5.0027E-03
   4    9.998       9.156       8.173       6.929       5.465       4.967       4.215       3.085       1.645      4.8788E-03
   5    9.998       9.109       8.013       6.373       3.375       4.387       4.039       3.025       1.625      4.8196E-03
   6    9.998       9.160       8.180       6.937       5.475       4.976       4.222       3.090       1.647      4.8862E-03
   7    9.998       9.247       8.408       7.434       6.382       5.493       4.474       3.206       1.693      5.0214E-03
   8    9.998       9.325       8.588       7.751       6.819       5.824       4.675       3.313       1.738      5.1568E-03
   9    9.998       9.377       8.701       7.929       7.037       6.009       4.802       3.387       1.772      5.2554E-03
  10    9.999       9.403       8.753       8.007       7.129       6.091       4.862       3.423       1.789      5.3054E-03
1
              HEAD IN LAYER   4 AT END OF TIME STEP   6 IN STRESS PERIOD    4
  ---------------------------------------------------------------------------

            1           2           3           4           5           6           7           8           9          10
 ........................................................................................................................
   1    9.998       9.343       8.633       7.834       6.930       5.909       4.722       3.333       1.744      5.2131E-03
   2    9.998       9.306       8.551       7.701       6.762       5.770       4.631       3.282       1.722      5.1465E-03
   3    9.998       9.237       8.388       7.407       6.352       5.464       4.450       3.188       1.683      5.0296E-03
   4    9.998       9.154       8.169       6.923       5.464       4.960       4.208       3.080       1.641      4.9047E-03
   5    9.998       9.107       8.008       6.371       3.545       4.387       4.033       3.020       1.621      4.8452E-03
   6    9.998       9.157       8.175       6.931       5.473       4.969       4.215       3.085       1.643      4.9123E-03
   7    9.998       9.245       8.404       7.429       6.376       5.487       4.468       3.201       1.689      5.0485E-03
   8    9.998       9.323       8.585       7.746       6.813       5.818       4.669       3.308       1.735      5.1850E-03
   9    9.998       9.376       8.698       7.924       7.032       6.003       4.796       3.382       1.768      5.2845E-03
  10    9.999       9.401       8.750       8.003       7.124       6.085       4.856       3.418       1.785      5.3350E-03

 HEAD WILL BE SAVED ON UNIT   51 AT END OF TIME STEP    6, STRESS PERIOD    4

 DRAWDOWN WILL BE SAVED ON UNIT   52 AT END OF TIME STEP    6, STRESS PERIOD    4
1
  VOLUMETRIC BUDGET FOR ENTIRE MODEL AT END OF TIME STEP    6, STRESS PERIOD   4
  ------------------------------------------------------------------------------

     CUMULATIVE VOLUMES      L**3       RATES FOR THIS TIME STEP      L**3/T
     ------------------                 ------------------------

           IN:                                      IN:
           ---                                      ---
             STORAGE =      456134.6562               STORAGE =         931.0580
       CONSTANT HEAD =           0.0000         CONSTANT HEAD =           0.0000
               WELLS =           0.0000                 WELLS =           0.0000
     HEAD DEP BOUNDS =       30031.5430       HEAD DEP BOUNDS =         434.1083

            TOTAL IN =      486166.1875              TOTAL IN =        1365.1663

          OUT:                                     OUT:
          ----                                     ----
             STORAGE =           0.0000               STORAGE =           0.0000
       CONSTANT HEAD =           0.0000         CONSTANT HEAD =           0.0000
               WELLS =       53000.0000                 WELLS =         500.0000
     HEAD DEP BOUNDS =      433167.9375       HEAD DEP BOUNDS =         865.1881

           TOTAL OUT =      486167.9375             TOTAL OUT =        1365.1881

            IN - OUT =          -1.7500              IN - OUT =      -2.1851E-02

 PERCENT DISCREPANCY =          -0.00     PERCENT DISCREPANCY =          -0.00






         TIME SUMMARY AT END OF TIME STEP    6 IN STRESS PERIOD    4
                    SECONDS     MINUTES      HOURS       DAYS        YEARS
                    -----------------------------------------------------------
   TIME STEP LENGTH  86400.      1440.0      24.000      1.0000     2.73785E-03
 STRESS PERIOD TIME 5.18400E+05  8640.0      144.00      6.0000     1.64271E-02
         TOTAL TIME 1.78848E+07 2.98080E+05  4968.0      207.00     0.56674    
1
 
 SOLVING FOR HEAD 

 OUTPUT CONTROL FOR STRESS PERIOD    4   TIME STEP    7
    SAVE HEAD FOR ALL LAYERS
    SAVE DRAWDOWN FOR ALL LAYERS
    SAVE BUDGET
    PRINT HEAD FOR ALL LAYERS
    PRINT BUDGET
 UBDSV1 SAVING "         STORAGE" ON UNIT  53 AT TIME STEP  7, STRESS PERIOD   4
 UBDSV2 SAVING "   CONSTANT HEAD" ON UNIT  53 AT TIME STEP  7, STRESS PERIOD   4
 UBDSV1 SAVING "FLOW RIGHT FACE " ON UNIT  53 AT TIME STEP  7, STRESS PERIOD   4
 UBDSV1 SAVING "FLOW FRONT FACE " ON UNIT  53 AT TIME STEP  7, STRESS PERIOD   4
 UBDSV1 SAVING "FLOW LOWER FACE " ON UNIT  53 AT TIME STEP  7, STRESS PERIOD   4
1
              HEAD IN LAYER   1 AT END OF TIME STEP   7 IN STRESS PERIOD    4
  ---------------------------------------------------------------------------

            1           2           3           4           5           6           7           8           9          10
 ........................................................................................................................
   1    9.998       9.350       8.646       7.851       6.951       5.931       4.743       3.352       1.758      2.4860E-03
   2    9.998       9.313       8.564       7.719       6.783       5.792       4.652       3.301       1.736      2.4521E-03
   3    9.998       9.244       8.402       7.426       6.374       5.486       4.471       3.207       1.696      2.3925E-03
   4    9.998       9.162       8.184       6.944       5.471       4.982       4.229       3.098       1.654      2.3289E-03
   5    9.998       9.115       8.025       6.382       2.573       4.388       4.053       3.038       1.634      2.2984E-03
   6    9.998       9.166       8.190       6.952       5.480       4.990       4.236       3.103       1.657      2.3325E-03
   7    9.998       9.252       8.418       7.448       6.397       5.509       4.489       3.219       1.702      2.4018E-03
   8    9.998       9.330       8.597       7.763       6.833       5.839       4.689       3.326       1.748      2.4714E-03
   9    9.998       9.382       8.709       7.940       7.050       6.023       4.816       3.399       1.781      2.5220E-03
  10    9.999       9.407       8.761       8.017       7.142       6.105       4.875       3.436       1.798      2.5477E-03
1
              HEAD IN LAYER   2 AT END OF TIME STEP   7 IN STRESS PERIOD    4
  ---------------------------------------------------------------------------

            1           2           3           4           5           6           7           8           9          10
 ........................................................................................................................
   1    9.998       9.344       8.635       7.837       6.934       5.914       4.728       3.339       1.750      4.8154E-03
   2    9.998       9.307       8.554       7.704       6.766       5.774       4.636       3.288       1.727      4.7536E-03
   3    9.998       9.238       8.391       7.411       6.356       5.469       4.455       3.194       1.688      4.6449E-03
   4    9.998       9.156       8.172       6.927       5.455       4.964       4.213       3.085       1.646      4.5288E-03
   5    9.998       9.109       8.012       6.365       3.003       4.375       4.037       3.025       1.626      4.4734E-03
   6    9.998       9.159       8.178       6.935       5.464       4.973       4.220       3.090       1.648      4.5358E-03
   7    9.998       9.246       8.407       7.432       6.380       5.491       4.473       3.206       1.694      4.6624E-03
   8    9.998       9.324       8.587       7.749       6.817       5.822       4.674       3.314       1.740      4.7892E-03
   9    9.998       9.377       8.699       7.927       7.035       6.008       4.801       3.388       1.774      4.8816E-03
  10    9.999       9.402       8.752       8.005       7.127       6.090       4.861       3.424       1.790      4.9285E-03
1
              HEAD IN LAYER   3 AT END OF TIME STEP   7 IN STRESS PERIOD    4
  ---------------------------------------------------------------------------

            1           2           3           4           5           6           7           8           9          10
 ........................................................................................................................
   1    9.998       9.340       8.628       7.827       6.922       5.901       4.715       3.328       1.742      5.1676E-03
   2    9.998       9.303       8.546       7.693       6.753       5.761       4.623       3.277       1.720      5.1012E-03
   3    9.998       9.234       8.383       7.400       6.343       5.455       4.442       3.183       1.680      4.9845E-03
   4    9.998       9.151       8.164       6.915       5.449       4.950       4.200       3.074       1.638      4.8601E-03
   5    9.998       9.104       8.003       6.358       3.358       4.370       4.024       3.014       1.618      4.8008E-03
   6    9.998       9.155       8.170       6.923       5.458       4.959       4.207       3.079       1.641      4.8677E-03
   7    9.998       9.242       8.399       7.421       6.367       5.478       4.460       3.195       1.687      5.0036E-03
   8    9.998       9.320       8.580       7.739       6.805       5.809       4.662       3.303       1.733      5.1399E-03
   9    9.998       9.373       8.693       7.917       7.024       5.996       4.790       3.377       1.766      5.2393E-03
  10    9.999       9.399       8.746       7.996       7.117       6.078       4.849       3.414       1.783      5.2898E-03
1
              HEAD IN LAYER   4 AT END OF TIME STEP   7 IN STRESS PERIOD    4
  ---------------------------------------------------------------------------

            1           2           3           4           5           6           7           8           9          10
 ........................................................................................................................
   1    9.998       9.338       8.624       7.822       6.916       5.894       4.709       3.323       1.738      5.1958E-03
   2    9.998       9.301       8.542       7.688       6.747       5.754       4.617       3.271       1.716      5.1288E-03
   3    9.998       9.232       8.379       7.394       6.336       5.448       4.435       3.177       1.677      5.0113E-03
   4    9.998       9.149       8.159       6.909       5.448       4.944       4.193       3.068       1.635      4.8860E-03
   5    9.998       9.102       7.998       6.357       3.527       4.370       4.018       3.008       1.615      4.8262E-03
   6    9.998       9.152       8.166       6.918       5.457       4.953       4.201       3.073       1.637      4.8937E-03
   7    9.998       9.240       8.395       7.416       6.361       5.471       4.454       3.190       1.683      5.0307E-03
   8    9.998       9.319       8.576       7.734       6.799       5.803       4.656       3.298       1.729      5.1681E-03
   9    9.998       9.371       8.689       7.913       7.018       5.990       4.784       3.372       1.763      5.2684E-03
  10    9.998       9.397       8.742       7.992       7.111       6.072       4.844       3.409       1.780      5.3194E-03

 HEAD WILL BE SAVED ON UNIT   51 AT END OF TIME STEP    7, STRESS PERIOD    4

 DRAWDOWN WILL BE SAVED ON UNIT   52 AT END OF TIME STEP    7, STRESS PERIOD    4
1
  VOLUMETRIC BUDGET FOR ENTIRE MODEL AT END OF TIME STEP    7, STRESS PERIOD   4
  ------------------------------------------------------------------------------

     CUMULATIVE VOLUMES      L**3       RATES FOR THIS TIME STEP      L**3/T
     ------------------                 ------------------------

           IN:                                      IN:
           ---                                      ---
             STORAGE =      457059.8438               STORAGE =         925.1871
       CONSTANT HEAD =           0.0000         CONSTANT HEAD =           0.0000
               WELLS =           0.0000                 WELLS =           0.0000
     HEAD DEP BOUNDS =       30468.4922       HEAD DEP BOUNDS =         436.9495

            TOTAL IN =      487528.3438              TOTAL IN =        1362.1366

          OUT:                                     OUT:
          ----                                     ----
             STORAGE =           0.0000               STORAGE =           0.0000
       CONSTANT HEAD =           0.0000         CONSTANT HEAD =           0.0000
               WELLS =       53500.0000                 WELLS =         500.0000
     HEAD DEP BOUNDS =      434030.0938       HEAD DEP BOUNDS =         862.1497

           TOTAL OUT =      487530.0938             TOTAL OUT =        1362.1497

            IN - OUT =          -1.7500              IN - OUT =      -1.3062E-02

 PERCENT DISCREPANCY =          -0.00     PERCENT DISCREPANCY =          -0.00






         TIME SUMMARY AT END OF TIME STEP    7 IN STRESS PERIOD    4
                    SECONDS     MINUTES      HOURS       DAYS        YEARS
                    -----------------------------------------------------------
   TIME STEP LENGTH  86400.      1440.0      24.000      1.0000     2.73785E-03
 STRESS PERIOD TIME 6.04800E+05  10080.      168.00      7.0000     1.91650E-02
         TOTAL TIME 1.79712E+07 2.99520E+05  4992.0      208.00     0.56947    
1
 
 SOLVING FOR HEAD 

 OUTPUT CONTROL FOR STRESS PERIOD    4   TIME STEP    8
    SAVE HEAD FOR ALL LAYERS
    SAVE DRAWDOWN FOR ALL LAYERS
    SAVE BUDGET
    PRINT HEAD FOR ALL LAYERS
    PRINT BUDGET
 UBDSV1 SAVING "         STORAGE" ON UNIT  53 AT TIME STEP  8, STRESS PERIOD   4
 UBDSV2 SAVING "   CONSTANT HEAD" ON UNIT  53 AT TIME STEP  8, STRESS PERIOD   4
 UBDSV1 SAVING "FLOW RIGHT FACE " ON UNIT  53 AT TIME STEP  8, STRESS PERIOD   4
 UBDSV1 SAVING "FLOW FRONT FACE " ON UNIT  53 AT TIME STEP  8, STRESS PERIOD   4
 UBDSV1 SAVING "FLOW LOWER FACE " ON UNIT  53 AT TIME STEP  8, STRESS PERIOD   4
1
              HEAD IN LAYER   1 AT END OF TIME STEP   8 IN STRESS PERIOD    4
  ---------------------------------------------------------------------------

            1           2           3           4           5           6           7           8           9          10
 ........................................................................................................................
   1    9.998       9.345       8.637       7.839       6.936       5.916       4.730       3.341       1.752      2.4771E-03
   2    9.998       9.308       8.555       7.706       6.768       5.776       4.638       3.290       1.730      2.4429E-03
   3    9.998       9.239       8.393       7.413       6.358       5.470       4.456       3.196       1.690      2.3830E-03
   4    9.998       9.157       8.174       6.930       5.454       4.965       4.214       3.086       1.648      2.3193E-03
   5    9.998       9.110       8.015       6.368       2.555       4.371       4.037       3.026       1.628      2.2889E-03
   6    9.998       9.161       8.181       6.938       5.464       4.974       4.221       3.091       1.650      2.3231E-03
   7    9.998       9.247       8.408       7.435       6.382       5.493       4.475       3.208       1.696      2.3927E-03
   8    9.998       9.325       8.588       7.751       6.819       5.824       4.676       3.316       1.742      2.4625E-03
   9    9.998       9.378       8.701       7.928       7.037       6.009       4.803       3.390       1.776      2.5138E-03
  10    9.999       9.403       8.753       8.007       7.129       6.092       4.863       3.426       1.793      2.5395E-03
1
              HEAD IN LAYER   2 AT END OF TIME STEP   8 IN STRESS PERIOD    4
  ---------------------------------------------------------------------------

            1           2           3           4           5           6           7           8           9          10
 ........................................................................................................................
   1    9.998       9.339       8.626       7.825       6.920       5.899       4.714       3.329       1.744      4.7993E-03
   2    9.998       9.302       8.544       7.691       6.751       5.759       4.622       3.277       1.721      4.7371E-03
   3    9.998       9.233       8.381       7.398       6.340       5.453       4.440       3.183       1.682      4.6279E-03
   4    9.998       9.151       8.162       6.913       5.439       4.948       4.198       3.074       1.640      4.5114E-03
   5    9.998       9.103       8.002       6.351       2.986       4.358       4.022       3.013       1.620      4.4558E-03
   6    9.998       9.154       8.169       6.922       5.448       4.957       4.206       3.079       1.642      4.5185E-03
   7    9.998       9.241       8.397       7.420       6.365       5.476       4.459       3.196       1.688      4.6458E-03
   8    9.998       9.320       8.578       7.737       6.803       5.808       4.661       3.303       1.734      4.7735E-03
   9    9.998       9.372       8.691       7.915       7.022       5.994       4.789       3.378       1.768      4.8666E-03
  10    9.999       9.398       8.744       7.994       7.115       6.076       4.849       3.414       1.785      4.9139E-03
1
              HEAD IN LAYER   3 AT END OF TIME STEP   8 IN STRESS PERIOD    4
  ---------------------------------------------------------------------------

            1           2           3           4           5           6           7           8           9          10
 ........................................................................................................................
   1    9.998       9.335       8.619       7.815       6.908       5.886       4.702       3.318       1.736      5.1504E-03
   2    9.998       9.298       8.537       7.681       6.739       5.746       4.610       3.266       1.714      5.0836E-03
   3    9.998       9.229       8.373       7.386       6.327       5.439       4.427       3.172       1.674      4.9664E-03
   4    9.998       9.146       8.154       6.901       5.433       4.934       4.185       3.062       1.632      4.8415E-03
   5    9.998       9.099       7.993       6.344       3.340       4.354       4.009       3.002       1.612      4.7820E-03
   6    9.998       9.150       8.160       6.910       5.442       4.943       4.193       3.068       1.635      4.8494E-03
   7    9.998       9.237       8.390       7.409       6.352       5.462       4.446       3.185       1.681      4.9860E-03
   8    9.998       9.316       8.571       7.727       6.791       5.795       4.649       3.293       1.727      5.1232E-03
   9    9.998       9.369       8.685       7.906       7.011       5.982       4.777       3.368       1.761      5.2233E-03
  10    9.998       9.395       8.738       7.985       7.104       6.065       4.837       3.405       1.778      5.2743E-03
1
              HEAD IN LAYER   4 AT END OF TIME STEP   8 IN STRESS PERIOD    4
  ---------------------------------------------------------------------------

            1           2           3           4           5           6           7           8           9          10
 ........................................................................................................................
   1    9.998       9.333       8.615       7.810       6.902       5.879       4.695       3.312       1.733      5.1785E-03
   2    9.998       9.296       8.533       7.675       6.732       5.739       4.603       3.261       1.710      5.1112E-03
   3    9.998       9.227       8.369       7.381       6.321       5.432       4.421       3.166       1.671      4.9932E-03
   4    9.998       9.144       8.149       6.895       5.431       4.927       4.179       3.057       1.628      4.8673E-03
   5    9.998       9.096       7.988       6.343       3.510       4.353       4.003       2.997       1.608      4.8075E-03
   6    9.998       9.147       8.156       6.904       5.441       4.937       4.186       3.062       1.631      4.8753E-03
   7    9.998       9.235       8.386       7.403       6.346       5.456       4.440       3.179       1.677      5.0130E-03
   8    9.998       9.314       8.567       7.722       6.785       5.789       4.643       3.288       1.724      5.1513E-03
   9    9.998       9.367       8.681       7.902       7.005       5.976       4.771       3.363       1.757      5.2524E-03
  10    9.998       9.393       8.735       7.981       7.099       6.059       4.832       3.400       1.775      5.3038E-03

 HEAD WILL BE SAVED ON UNIT   51 AT END OF TIME STEP    8, STRESS PERIOD    4

 DRAWDOWN WILL BE SAVED ON UNIT   52 AT END OF TIME STEP    8, STRESS PERIOD    4
1
  VOLUMETRIC BUDGET FOR ENTIRE MODEL AT END OF TIME STEP    8, STRESS PERIOD   4
  ------------------------------------------------------------------------------

     CUMULATIVE VOLUMES      L**3       RATES FOR THIS TIME STEP      L**3/T
     ------------------                 ------------------------

           IN:                                      IN:
           ---                                      ---
             STORAGE =      457979.2188               STORAGE =         919.3613
       CONSTANT HEAD =           0.0000         CONSTANT HEAD =           0.0000
               WELLS =           0.0000                 WELLS =           0.0000
     HEAD DEP BOUNDS =       30908.2598       HEAD DEP BOUNDS =         439.7676

            TOTAL IN =      488887.4688              TOTAL IN =        1359.1289

          OUT:                                     OUT:
          ----                                     ----
             STORAGE =           0.0000               STORAGE =           0.0000
       CONSTANT HEAD =           0.0000         CONSTANT HEAD =           0.0000
               WELLS =       54000.0000                 WELLS =         500.0000
     HEAD DEP BOUNDS =      434889.2188       HEAD DEP BOUNDS =         859.1316

           TOTAL OUT =      488889.2188             TOTAL OUT =        1359.1316

            IN - OUT =          -1.7500              IN - OUT =      -2.6855E-03

 PERCENT DISCREPANCY =          -0.00     PERCENT DISCREPANCY =          -0.00






         TIME SUMMARY AT END OF TIME STEP    8 IN STRESS PERIOD    4
                    SECONDS     MINUTES      HOURS       DAYS        YEARS
                    -----------------------------------------------------------
   TIME STEP LENGTH  86400.      1440.0      24.000      1.0000     2.73785E-03
 STRESS PERIOD TIME 6.91200E+05  11520.      192.00      8.0000     2.19028E-02
         TOTAL TIME 1.80576E+07 3.00960E+05  5016.0      209.00     0.57221    
1
 
 SOLVING FOR HEAD 

 OUTPUT CONTROL FOR STRESS PERIOD    4   TIME STEP    9
    SAVE HEAD FOR ALL LAYERS
    SAVE DRAWDOWN FOR ALL LAYERS
    SAVE BUDGET
    PRINT HEAD FOR ALL LAYERS
    PRINT BUDGET
 UBDSV1 SAVING "         STORAGE" ON UNIT  53 AT TIME STEP  9, STRESS PERIOD   4
 UBDSV2 SAVING "   CONSTANT HEAD" ON UNIT  53 AT TIME STEP  9, STRESS PERIOD   4
 UBDSV1 SAVING "FLOW RIGHT FACE " ON UNIT  53 AT TIME STEP  9, STRESS PERIOD   4
 UBDSV1 SAVING "FLOW FRONT FACE " ON UNIT  53 AT TIME STEP  9, STRESS PERIOD   4
 UBDSV1 SAVING "FLOW LOWER FACE " ON UNIT  53 AT TIME STEP  9, STRESS PERIOD   4
1
              HEAD IN LAYER   1 AT END OF TIME STEP   9 IN STRESS PERIOD    4
  ---------------------------------------------------------------------------

            1           2           3           4           5           6           7           8           9          10
 ........................................................................................................................
   1    9.998       9.340       8.628       7.827       6.922       5.901       4.716       3.331       1.746      2.4681E-03
   2    9.998       9.303       8.546       7.693       6.753       5.761       4.624       3.279       1.724      2.4339E-03
   3    9.998       9.234       8.383       7.400       6.343       5.454       4.442       3.184       1.684      2.3737E-03
   4    9.998       9.152       8.164       6.916       5.438       4.948       4.199       3.075       1.642      2.3097E-03
   5    9.998       9.105       8.005       6.353       2.538       4.354       4.022       3.014       1.621      2.2793E-03
   6    9.998       9.155       8.171       6.925       5.448       4.957       4.207       3.080       1.644      2.3137E-03
   7    9.998       9.243       8.399       7.422       6.367       5.477       4.461       3.197       1.690      2.3836E-03
   8    9.998       9.321       8.580       7.739       6.805       5.809       4.663       3.305       1.737      2.4538E-03
   9    9.998       9.373       8.693       7.917       7.024       5.996       4.791       3.380       1.771      2.5054E-03
  10    9.999       9.399       8.745       7.996       7.116       6.078       4.851       3.417       1.788      2.5317E-03
1
              HEAD IN LAYER   2 AT END OF TIME STEP   9 IN STRESS PERIOD    4
  ---------------------------------------------------------------------------

            1           2           3           4           5           6           7           8           9          10
 ........................................................................................................................
   1    9.998       9.335       8.617       7.813       6.905       5.884       4.701       3.318       1.738      4.7832E-03
   2    9.998       9.297       8.535       7.679       6.736       5.744       4.608       3.266       1.715      4.7207E-03
   3    9.998       9.228       8.372       7.384       6.325       5.437       4.426       3.172       1.676      4.6110E-03
   4    9.998       9.146       8.152       6.899       5.422       4.931       4.183       3.062       1.633      4.4940E-03
   5    9.998       9.098       7.992       6.337       2.968       4.341       4.007       3.002       1.613      4.4383E-03
   6    9.998       9.149       8.159       6.908       5.432       4.940       4.191       3.067       1.636      4.5014E-03
   7    9.998       9.237       8.388       7.407       6.350       5.460       4.445       3.185       1.682      4.6293E-03
   8    9.998       9.315       8.569       7.725       6.789       5.793       4.648       3.293       1.729      4.7578E-03
   9    9.998       9.368       8.683       7.904       7.009       5.980       4.776       3.368       1.763      4.8517E-03
  10    9.998       9.394       8.736       7.983       7.102       6.063       4.837       3.405       1.780      4.8995E-03
1
              HEAD IN LAYER   3 AT END OF TIME STEP   9 IN STRESS PERIOD    4
  ---------------------------------------------------------------------------

            1           2           3           4           5           6           7           8           9          10
 ........................................................................................................................
   1    9.998       9.331       8.610       7.803       6.893       5.871       4.688       3.307       1.731      5.1333E-03
   2    9.998       9.293       8.528       7.668       6.724       5.731       4.596       3.256       1.708      5.0662E-03
   3    9.998       9.224       8.364       7.373       6.312       5.423       4.413       3.161       1.668      4.9485E-03
   4    9.998       9.141       8.144       6.887       5.416       4.917       4.170       3.051       1.626      4.8231E-03
   5    9.998       9.094       7.983       6.331       3.323       4.337       3.994       2.991       1.606      4.7635E-03
   6    9.998       9.145       8.151       6.896       5.427       4.927       4.178       3.056       1.629      4.8311E-03
   7    9.998       9.233       8.381       7.396       6.337       5.447       4.432       3.174       1.675      4.9684E-03
   8    9.998       9.311       8.562       7.715       6.777       5.781       4.636       3.283       1.722      5.1065E-03
   9    9.998       9.365       8.677       7.895       6.998       5.968       4.765       3.358       1.756      5.2075E-03
  10    9.998       9.391       8.730       7.974       7.091       6.052       4.825       3.395       1.773      5.2589E-03
1
              HEAD IN LAYER   4 AT END OF TIME STEP   9 IN STRESS PERIOD    4
  ---------------------------------------------------------------------------

            1           2           3           4           5           6           7           8           9          10
 ........................................................................................................................
   1    9.998       9.329       8.607       7.798       6.887       5.865       4.682       3.302       1.727      5.1614E-03
   2    9.998       9.291       8.524       7.663       6.718       5.724       4.589       3.250       1.704      5.0938E-03
   3    9.998       9.222       8.360       7.368       6.305       5.416       4.407       3.155       1.665      4.9751E-03
   4    9.998       9.139       8.140       6.882       5.415       4.911       4.164       3.046       1.622      4.8488E-03
   5    9.998       9.091       7.978       6.329       3.493       4.336       3.988       2.985       1.602      4.7889E-03
   6    9.998       9.142       8.146       6.891       5.425       4.920       4.172       3.051       1.625      4.8570E-03
   7    9.998       9.231       8.377       7.391       6.331       5.441       4.426       3.169       1.671      4.9954E-03
   8    9.998       9.310       8.559       7.711       6.771       5.774       4.630       3.278       1.718      5.1346E-03
   9    9.998       9.363       8.673       7.890       6.992       5.962       4.759       3.353       1.752      5.2365E-03
  10    9.998       9.389       8.727       7.970       7.086       6.046       4.820       3.390       1.769      5.2883E-03

 HEAD WILL BE SAVED ON UNIT   51 AT END OF TIME STEP    9, STRESS PERIOD    4

 DRAWDOWN WILL BE SAVED ON UNIT   52 AT END OF TIME STEP    9, STRESS PERIOD    4
1
  VOLUMETRIC BUDGET FOR ENTIRE MODEL AT END OF TIME STEP    9, STRESS PERIOD   4
  ------------------------------------------------------------------------------

     CUMULATIVE VOLUMES      L**3       RATES FOR THIS TIME STEP      L**3/T
     ------------------                 ------------------------

           IN:                                      IN:
           ---                                      ---
             STORAGE =      458892.7812               STORAGE =         913.5653
       CONSTANT HEAD =           0.0000         CONSTANT HEAD =           0.0000
               WELLS =           0.0000                 WELLS =           0.0000
     HEAD DEP BOUNDS =       31350.8184       HEAD DEP BOUNDS =         442.5587

            TOTAL IN =      490243.5938              TOTAL IN =        1356.1240

          OUT:                                     OUT:
          ----                                     ----
             STORAGE =           0.0000               STORAGE =           0.0000
       CONSTANT HEAD =           0.0000         CONSTANT HEAD =           0.0000
               WELLS =       54500.0000                 WELLS =         500.0000
     HEAD DEP BOUNDS =      435745.3438       HEAD DEP BOUNDS =         856.1324

           TOTAL OUT =      490245.3438             TOTAL OUT =        1356.1324

            IN - OUT =          -1.7500              IN - OUT =      -8.4229E-03

 PERCENT DISCREPANCY =          -0.00     PERCENT DISCREPANCY =          -0.00






         TIME SUMMARY AT END OF TIME STEP    9 IN STRESS PERIOD    4
                    SECONDS     MINUTES      HOURS       DAYS        YEARS
                    -----------------------------------------------------------
   TIME STEP LENGTH  86400.      1440.0      24.000      1.0000     2.73785E-03
 STRESS PERIOD TIME 7.77600E+05  12960.      216.00      9.0000     2.46407E-02
         TOTAL TIME 1.81440E+07 3.02400E+05  5040.0      210.00     0.57495    
1
 
 SOLVING FOR HEAD 

 OUTPUT CONTROL FOR STRESS PERIOD    4   TIME STEP   10
    SAVE HEAD FOR ALL LAYERS
    SAVE DRAWDOWN FOR ALL LAYERS
    SAVE BUDGET
    PRINT HEAD FOR ALL LAYERS
    PRINT BUDGET
 UBDSV1 SAVING "         STORAGE" ON UNIT  53 AT TIME STEP 10, STRESS PERIOD   4
 UBDSV2 SAVING "   CONSTANT HEAD" ON UNIT  53 AT TIME STEP 10, STRESS PERIOD   4
 UBDSV1 SAVING "FLOW RIGHT FACE " ON UNIT  53 AT TIME STEP 10, STRESS PERIOD   4
 UBDSV1 SAVING "FLOW FRONT FACE " ON UNIT  53 AT TIME STEP 10, STRESS PERIOD   4
 UBDSV1 SAVING "FLOW LOWER FACE " ON UNIT  53 AT TIME STEP 10, STRESS PERIOD   4
1
              HEAD IN LAYER   1 AT END OF TIME STEP  10 IN STRESS PERIOD    4
  ---------------------------------------------------------------------------

            1           2           3           4           5           6           7           8           9          10
 ........................................................................................................................
   1    9.998       9.336       8.619       7.814       6.907       5.886       4.702       3.320       1.740      2.4593E-03
   2    9.998       9.298       8.537       7.680       6.738       5.746       4.610       3.268       1.718      2.4248E-03
   3    9.998       9.229       8.373       7.387       6.327       5.438       4.428       3.173       1.678      2.3645E-03
   4    9.998       9.147       8.155       6.902       5.422       4.932       4.184       3.064       1.635      2.3002E-03
   5    9.998       9.100       7.995       6.340       2.520       4.337       4.007       3.003       1.615      2.2697E-03
   6    9.998       9.150       8.161       6.911       5.432       4.941       4.192       3.069       1.638      2.3042E-03
   7    9.998       9.238       8.390       7.409       6.352       5.462       4.447       3.187       1.684      2.3744E-03
   8    9.998       9.316       8.571       7.727       6.791       5.795       4.650       3.295       1.731      2.4454E-03
   9    9.998       9.369       8.684       7.906       7.010       5.982       4.778       3.370       1.765      2.4971E-03
  10    9.999       9.395       8.737       7.985       7.104       6.065       4.839       3.407       1.782      2.5237E-03
1
              HEAD IN LAYER   2 AT END OF TIME STEP  10 IN STRESS PERIOD    4
  ---------------------------------------------------------------------------

            1           2           3           4           5           6           7           8           9          10
 ........................................................................................................................
   1    9.998       9.330       8.608       7.800       6.891       5.869       4.687       3.308       1.732      4.7673E-03
   2    9.998       9.293       8.526       7.666       6.722       5.729       4.595       3.256       1.710      4.7044E-03
   3    9.998       9.223       8.362       7.371       6.310       5.421       4.412       3.161       1.670      4.5942E-03
   4    9.998       9.140       8.143       6.886       5.406       4.915       4.169       3.051       1.627      4.4768E-03
   5    9.998       9.093       7.982       6.323       2.951       4.324       3.992       2.990       1.607      4.4210E-03
   6    9.998       9.144       8.149       6.895       5.417       4.924       4.176       3.056       1.630      4.4843E-03
   7    9.998       9.232       8.379       7.394       6.335       5.445       4.431       3.174       1.676      4.6129E-03
   8    9.998       9.311       8.561       7.713       6.775       5.779       4.635       3.283       1.723      4.7423E-03
   9    9.998       9.364       8.675       7.893       6.996       5.967       4.764       3.359       1.757      4.8369E-03
  10    9.998       9.390       8.728       7.973       7.089       6.050       4.825       3.396       1.775      4.8851E-03
1
              HEAD IN LAYER   3 AT END OF TIME STEP  10 IN STRESS PERIOD    4
  ---------------------------------------------------------------------------

            1           2           3           4           5           6           7           8           9          10
 ........................................................................................................................
   1    9.998       9.326       8.601       7.790       6.879       5.856       4.675       3.297       1.725      5.1163E-03
   2    9.998       9.289       8.519       7.656       6.709       5.716       4.582       3.245       1.702      5.0489E-03
   3    9.998       9.219       8.354       7.360       6.297       5.408       4.399       3.150       1.662      4.9306E-03
   4    9.998       9.136       8.134       6.874       5.400       4.901       4.156       3.040       1.620      4.8048E-03
   5    9.998       9.089       7.973       6.317       3.306       4.320       3.979       2.980       1.600      4.7450E-03
   6    9.998       9.140       8.141       6.883       5.411       4.911       4.164       3.045       1.623      4.8130E-03
   7    9.998       9.228       8.371       7.383       6.322       5.432       4.419       3.163       1.669      4.9510E-03
   8    9.998       9.307       8.554       7.704       6.763       5.766       4.623       3.273       1.716      5.0900E-03
   9    9.998       9.361       8.668       7.884       6.985       5.955       4.752       3.349       1.750      5.1917E-03
  10    9.998       9.386       8.722       7.964       7.079       6.039       4.813       3.386       1.768      5.2435E-03
1
              HEAD IN LAYER   4 AT END OF TIME STEP  10 IN STRESS PERIOD    4
  ---------------------------------------------------------------------------

            1           2           3           4           5           6           7           8           9          10
 ........................................................................................................................
   1    9.998       9.324       8.598       7.785       6.873       5.850       4.669       3.292       1.721      5.1444E-03
   2    9.998       9.287       8.515       7.650       6.703       5.709       4.576       3.240       1.698      5.0764E-03
   3    9.998       9.217       8.350       7.355       6.290       5.401       4.392       3.144       1.659      4.9572E-03
   4    9.998       9.134       8.130       6.868       5.399       4.895       4.149       3.035       1.616      4.8305E-03
   5    9.998       9.086       7.969       6.315       3.476       4.320       3.973       2.974       1.596      4.7704E-03
   6    9.998       9.137       8.137       6.877       5.410       4.904       4.157       3.040       1.619      4.8389E-03
   7    9.998       9.226       8.368       7.378       6.316       5.425       4.412       3.158       1.665      4.9780E-03
   8    9.998       9.305       8.550       7.699       6.757       5.760       4.617       3.268       1.712      5.1180E-03
   9    9.998       9.359       8.665       7.879       6.979       5.949       4.747       3.343       1.747      5.2207E-03
  10    9.998       9.385       8.719       7.959       7.073       6.033       4.808       3.381       1.764      5.2729E-03

 HEAD WILL BE SAVED ON UNIT   51 AT END OF TIME STEP   10, STRESS PERIOD    4

 DRAWDOWN WILL BE SAVED ON UNIT   52 AT END OF TIME STEP   10, STRESS PERIOD    4
1
  VOLUMETRIC BUDGET FOR ENTIRE MODEL AT END OF TIME STEP   10, STRESS PERIOD   4
  ------------------------------------------------------------------------------

     CUMULATIVE VOLUMES      L**3       RATES FOR THIS TIME STEP      L**3/T
     ------------------                 ------------------------

           IN:                                      IN:
           ---                                      ---
             STORAGE =      459800.5938               STORAGE =         907.8015
       CONSTANT HEAD =           0.0000         CONSTANT HEAD =           0.0000
               WELLS =           0.0000                 WELLS =           0.0000
     HEAD DEP BOUNDS =       31796.1523       HEAD DEP BOUNDS =         445.3334

            TOTAL IN =      491596.7500              TOTAL IN =        1353.1349

          OUT:                                     OUT:
          ----                                     ----
             STORAGE =           0.0000               STORAGE =           0.0000
       CONSTANT HEAD =           0.0000         CONSTANT HEAD =           0.0000
               WELLS =       55000.0000                 WELLS =         500.0000
     HEAD DEP BOUNDS =      436598.5000       HEAD DEP BOUNDS =         853.1529

           TOTAL OUT =      491598.5000             TOTAL OUT =        1353.1528

            IN - OUT =          -1.7500              IN - OUT =      -1.7944E-02

 PERCENT DISCREPANCY =          -0.00     PERCENT DISCREPANCY =          -0.00






         TIME SUMMARY AT END OF TIME STEP   10 IN STRESS PERIOD    4
                    SECONDS     MINUTES      HOURS       DAYS        YEARS
                    -----------------------------------------------------------
   TIME STEP LENGTH  86400.      1440.0      24.000      1.0000     2.73785E-03
 STRESS PERIOD TIME 8.64000E+05  14400.      240.00      10.000     2.73785E-02
         TOTAL TIME 1.82304E+07 3.03840E+05  5064.0      211.00     0.57769    
1
 
 SOLVING FOR HEAD 

 OUTPUT CONTROL FOR STRESS PERIOD    4   TIME STEP   11
    SAVE HEAD FOR ALL LAYERS
    SAVE DRAWDOWN FOR ALL LAYERS
    SAVE BUDGET
    PRINT HEAD FOR ALL LAYERS
    PRINT BUDGET
 UBDSV1 SAVING "         STORAGE" ON UNIT  53 AT TIME STEP 11, STRESS PERIOD   4
 UBDSV2 SAVING "   CONSTANT HEAD" ON UNIT  53 AT TIME STEP 11, STRESS PERIOD   4
 UBDSV1 SAVING "FLOW RIGHT FACE " ON UNIT  53 AT TIME STEP 11, STRESS PERIOD   4
 UBDSV1 SAVING "FLOW FRONT FACE " ON UNIT  53 AT TIME STEP 11, STRESS PERIOD   4
 UBDSV1 SAVING "FLOW LOWER FACE " ON UNIT  53 AT TIME STEP 11, STRESS PERIOD   4
1
              HEAD IN LAYER   1 AT END OF TIME STEP  11 IN STRESS PERIOD    4
  ---------------------------------------------------------------------------

            1           2           3           4           5           6           7           8           9          10
 ........................................................................................................................
   1    9.998       9.331       8.610       7.802       6.893       5.871       4.689       3.310       1.735      2.4506E-03
   2    9.998       9.294       8.528       7.668       6.724       5.730       4.596       3.258       1.712      2.4159E-03
   3    9.998       9.224       8.364       7.374       6.312       5.423       4.413       3.162       1.672      2.3552E-03
   4    9.998       9.142       8.145       6.889       5.406       4.915       4.170       3.052       1.629      2.2907E-03
   5    9.998       9.095       7.985       6.326       2.503       4.320       3.992       2.992       1.609      2.2602E-03
   6    9.998       9.145       8.152       6.898       5.416       4.925       4.177       3.058       1.632      2.2949E-03
   7    9.998       9.233       8.381       7.396       6.337       5.447       4.433       3.176       1.679      2.3656E-03
   8    9.998       9.312       8.562       7.715       6.777       5.780       4.637       3.285       1.725      2.4368E-03
   9    9.998       9.365       8.676       7.895       6.997       5.968       4.766       3.361       1.760      2.4890E-03
  10    9.999       9.391       8.730       7.974       7.091       6.052       4.827       3.398       1.777      2.5156E-03
1
              HEAD IN LAYER   2 AT END OF TIME STEP  11 IN STRESS PERIOD    4
  ---------------------------------------------------------------------------

            1           2           3           4           5           6           7           8           9          10
 ........................................................................................................................
   1    9.998       9.325       8.600       7.788       6.877       5.854       4.674       3.297       1.727      4.7514E-03
   2    9.998       9.288       8.517       7.653       6.707       5.714       4.581       3.245       1.704      4.6883E-03
   3    9.998       9.218       8.353       7.358       6.294       5.405       4.398       3.150       1.664      4.5775E-03
   4    9.998       9.135       8.133       6.872       5.390       4.898       4.154       3.040       1.621      4.4597E-03
   5    9.998       9.088       7.972       6.309       2.934       4.308       3.977       2.979       1.601      4.4038E-03
   6    9.998       9.139       8.140       6.882       5.401       4.908       4.162       3.045       1.624      4.4674E-03
   7    9.998       9.227       8.370       7.382       6.320       5.430       4.417       3.164       1.671      4.5967E-03
   8    9.998       9.306       8.552       7.702       6.761       5.764       4.622       3.273       1.718      4.7268E-03
   9    9.998       9.360       8.667       7.882       6.983       5.953       4.752       3.349       1.752      4.8221E-03
  10    9.998       9.386       8.721       7.962       7.077       6.037       4.813       3.386       1.770      4.8707E-03
1
              HEAD IN LAYER   3 AT END OF TIME STEP  11 IN STRESS PERIOD    4
  ---------------------------------------------------------------------------

            1           2           3           4           5           6           7           8           9          10
 ........................................................................................................................
   1    9.998       9.321       8.592       7.778       6.865       5.842       4.661       3.287       1.719      5.0995E-03
   2    9.998       9.284       8.510       7.643       6.695       5.701       4.568       3.235       1.696      5.0317E-03
   3    9.998       9.214       8.345       7.347       6.281       5.392       4.385       3.139       1.656      4.9129E-03
   4    9.998       9.131       8.124       6.860       5.385       4.885       4.141       3.029       1.614      4.7866E-03
   5    9.998       9.083       7.963       6.303       3.289       4.304       3.965       2.968       1.593      4.7267E-03
   6    9.998       9.135       8.131       6.870       5.395       4.895       4.149       3.034       1.616      4.7950E-03
   7    9.998       9.223       8.362       7.371       6.308       5.417       4.405       3.153       1.663      4.9338E-03
   8    9.998       9.303       8.545       7.692       6.749       5.752       4.610       3.263       1.710      5.0736E-03
   9    9.998       9.356       8.660       7.873       6.972       5.941       4.740       3.339       1.745      5.1760E-03
  10    9.998       9.382       8.714       7.953       7.066       6.026       4.801       3.377       1.763      5.2283E-03
1
              HEAD IN LAYER   4 AT END OF TIME STEP  11 IN STRESS PERIOD    4
  ---------------------------------------------------------------------------

            1           2           3           4           5           6           7           8           9          10
 ........................................................................................................................
   1    9.998       9.320       8.589       7.773       6.859       5.835       4.655       3.282       1.716      5.1274E-03
   2    9.998       9.282       8.506       7.638       6.689       5.694       4.562       3.229       1.693      5.0591E-03
   3    9.998       9.212       8.341       7.342       6.275       5.385       4.378       3.134       1.653      4.9394E-03
   4    9.998       9.129       8.120       6.855       5.383       4.878       4.135       3.023       1.610      4.8122E-03
   5    9.998       9.081       7.959       6.302       3.459       4.304       3.958       2.963       1.590      4.7520E-03
   6    9.998       9.132       8.127       6.864       5.394       4.888       4.143       3.029       1.613      4.8208E-03
   7    9.998       9.221       8.359       7.365       6.301       5.410       4.399       3.148       1.660      4.9606E-03
   8    9.998       9.301       8.542       7.687       6.743       5.746       4.604       3.258       1.707      5.1016E-03
   9    9.998       9.355       8.657       7.868       6.966       5.935       4.734       3.334       1.741      5.2049E-03
  10    9.998       9.381       8.711       7.949       7.061       6.020       4.796       3.372       1.759      5.2576E-03

 HEAD WILL BE SAVED ON UNIT   51 AT END OF TIME STEP   11, STRESS PERIOD    4

 DRAWDOWN WILL BE SAVED ON UNIT   52 AT END OF TIME STEP   11, STRESS PERIOD    4
1
  VOLUMETRIC BUDGET FOR ENTIRE MODEL AT END OF TIME STEP   11, STRESS PERIOD   4
  ------------------------------------------------------------------------------

     CUMULATIVE VOLUMES      L**3       RATES FOR THIS TIME STEP      L**3/T
     ------------------                 ------------------------

           IN:                                      IN:
           ---                                      ---
             STORAGE =      460702.6875               STORAGE =         902.0797
       CONSTANT HEAD =           0.0000         CONSTANT HEAD =           0.0000
               WELLS =           0.0000                 WELLS =           0.0000
     HEAD DEP BOUNDS =       32244.2520       HEAD DEP BOUNDS =         448.0987

            TOTAL IN =      492946.9375              TOTAL IN =        1350.1785

          OUT:                                     OUT:
          ----                                     ----
             STORAGE =           0.0000               STORAGE =           0.0000
       CONSTANT HEAD =           0.0000         CONSTANT HEAD =           0.0000
               WELLS =       55500.0000                 WELLS =         500.0000
     HEAD DEP BOUNDS =      437448.6875       HEAD DEP BOUNDS =         850.1944

           TOTAL OUT =      492948.6875             TOTAL OUT =        1350.1943

            IN - OUT =          -1.7500              IN - OUT =      -1.5869E-02

 PERCENT DISCREPANCY =          -0.00     PERCENT DISCREPANCY =          -0.00






         TIME SUMMARY AT END OF TIME STEP   11 IN STRESS PERIOD    4
                    SECONDS     MINUTES      HOURS       DAYS        YEARS
                    -----------------------------------------------------------
   TIME STEP LENGTH  86400.      1440.0      24.000      1.0000     2.73785E-03
 STRESS PERIOD TIME 9.50400E+05  15840.      264.00      11.000     3.01164E-02
         TOTAL TIME 1.83168E+07 3.05280E+05  5088.0      212.00     0.58042    
1
 
 SOLVING FOR HEAD 

 OUTPUT CONTROL FOR STRESS PERIOD    4   TIME STEP   12
    SAVE HEAD FOR ALL LAYERS
    SAVE DRAWDOWN FOR ALL LAYERS
    SAVE BUDGET
    PRINT HEAD FOR ALL LAYERS
    PRINT BUDGET
 UBDSV1 SAVING "         STORAGE" ON UNIT  53 AT TIME STEP 12, STRESS PERIOD   4
 UBDSV2 SAVING "   CONSTANT HEAD" ON UNIT  53 AT TIME STEP 12, STRESS PERIOD   4
 UBDSV1 SAVING "FLOW RIGHT FACE " ON UNIT  53 AT TIME STEP 12, STRESS PERIOD   4
 UBDSV1 SAVING "FLOW FRONT FACE " ON UNIT  53 AT TIME STEP 12, STRESS PERIOD   4
 UBDSV1 SAVING "FLOW LOWER FACE " ON UNIT  53 AT TIME STEP 12, STRESS PERIOD   4
1
              HEAD IN LAYER   1 AT END OF TIME STEP  12 IN STRESS PERIOD    4
  ---------------------------------------------------------------------------

            1           2           3           4           5           6           7           8           9          10
 ........................................................................................................................
   1    9.998       9.326       8.601       7.790       6.878       5.856       4.676       3.299       1.729      2.4419E-03
   2    9.998       9.289       8.519       7.655       6.709       5.715       4.583       3.247       1.706      2.4070E-03
   3    9.998       9.219       8.355       7.360       6.296       5.407       4.399       3.152       1.666      2.3461E-03
   4    9.998       9.137       8.135       6.875       5.390       4.899       4.155       3.041       1.623      2.2815E-03
   5    9.998       9.090       7.975       6.312       2.486       4.304       3.978       2.980       1.603      2.2508E-03
   6    9.998       9.140       8.142       6.884       5.400       4.909       4.163       3.047       1.626      2.2857E-03
   7    9.998       9.228       8.372       7.384       6.322       5.432       4.419       3.165       1.673      2.3568E-03
   8    9.998       9.307       8.554       7.703       6.763       5.766       4.624       3.275       1.720      2.4283E-03
   9    9.998       9.361       8.668       7.883       6.984       5.955       4.753       3.351       1.754      2.4809E-03
  10    9.998       9.387       8.722       7.963       7.078       6.039       4.815       3.389       1.772      2.5077E-03
1
              HEAD IN LAYER   2 AT END OF TIME STEP  12 IN STRESS PERIOD    4
  ---------------------------------------------------------------------------

            1           2           3           4           5           6           7           8           9          10
 ........................................................................................................................
   1    9.998       9.321       8.591       7.776       6.862       5.840       4.660       3.287       1.721      4.7357E-03
   2    9.998       9.283       8.508       7.641       6.692       5.699       4.567       3.235       1.698      4.6722E-03
   3    9.998       9.213       8.343       7.345       6.279       5.390       4.383       3.139       1.658      4.5610E-03
   4    9.998       9.130       8.123       6.859       5.375       4.882       4.140       3.029       1.615      4.4427E-03
   5    9.998       9.083       7.962       6.296       2.916       4.291       3.963       2.968       1.595      4.3867E-03
   6    9.998       9.134       8.130       6.868       5.385       4.892       4.148       3.034       1.618      4.4507E-03
   7    9.998       9.222       8.361       7.369       6.306       5.415       4.404       3.153       1.665      4.5806E-03
   8    9.998       9.302       8.544       7.690       6.747       5.750       4.609       3.263       1.712      4.7115E-03
   9    9.998       9.356       8.659       7.871       6.970       5.940       4.739       3.339       1.747      4.8075E-03
  10    9.998       9.382       8.713       7.951       7.064       6.024       4.801       3.377       1.764      4.8565E-03
1
              HEAD IN LAYER   3 AT END OF TIME STEP  12 IN STRESS PERIOD    4
  ---------------------------------------------------------------------------

            1           2           3           4           5           6           7           8           9          10
 ........................................................................................................................
   1    9.998       9.317       8.584       7.766       6.851       5.827       4.648       3.277       1.714      5.0827E-03
   2    9.998       9.279       8.501       7.631       6.680       5.686       4.555       3.224       1.691      5.0145E-03
   3    9.998       9.209       8.336       7.334       6.266       5.377       4.371       3.128       1.650      4.8953E-03
   4    9.998       9.126       8.115       6.847       5.369       4.869       4.127       3.018       1.608      4.7685E-03
   5    9.998       9.078       7.954       6.290       3.272       4.287       3.950       2.957       1.587      4.7086E-03
   6    9.998       9.130       8.122       6.857       5.380       4.879       4.135       3.024       1.610      4.7772E-03
   7    9.998       9.218       8.353       7.358       6.293       5.402       4.391       3.142       1.658      4.9166E-03
   8    9.998       9.298       8.537       7.680       6.736       5.738       4.597       3.253       1.705      5.0572E-03
   9    9.998       9.352       8.652       7.862       6.959       5.928       4.728       3.330       1.740      5.1604E-03
  10    9.998       9.378       8.707       7.942       7.054       6.013       4.790       3.368       1.757      5.2131E-03
1
              HEAD IN LAYER   4 AT END OF TIME STEP  12 IN STRESS PERIOD    4
  ---------------------------------------------------------------------------

            1           2           3           4           5           6           7           8           9          10
 ........................................................................................................................
   1    9.998       9.315       8.580       7.761       6.845       5.821       4.642       3.271       1.710      5.1106E-03
   2    9.998       9.277       8.497       7.626       6.674       5.679       4.549       3.219       1.687      5.0419E-03
   3    9.998       9.207       8.332       7.329       6.260       5.370       4.364       3.123       1.647      4.9218E-03
   4    9.998       9.124       8.111       6.841       5.368       4.862       4.120       3.012       1.604      4.7941E-03
   5    9.998       9.076       7.949       6.288       3.443       4.287       3.944       2.952       1.584      4.7338E-03
   6    9.998       9.128       8.118       6.851       5.379       4.873       4.129       3.018       1.607      4.8029E-03
   7    9.998       9.216       8.350       7.353       6.287       5.395       4.385       3.137       1.654      4.9434E-03
   8    9.998       9.296       8.533       7.675       6.730       5.732       4.591       3.248       1.701      5.0852E-03
   9    9.998       9.350       8.649       7.857       6.953       5.922       4.722       3.325       1.736      5.1893E-03
  10    9.998       9.377       8.704       7.938       7.048       6.007       4.784       3.363       1.754      5.2424E-03

 HEAD WILL BE SAVED ON UNIT   51 AT END OF TIME STEP   12, STRESS PERIOD    4

 DRAWDOWN WILL BE SAVED ON UNIT   52 AT END OF TIME STEP   12, STRESS PERIOD    4
1
  VOLUMETRIC BUDGET FOR ENTIRE MODEL AT END OF TIME STEP   12, STRESS PERIOD   4
  ------------------------------------------------------------------------------

     CUMULATIVE VOLUMES      L**3       RATES FOR THIS TIME STEP      L**3/T
     ------------------                 ------------------------

           IN:                                      IN:
           ---                                      ---
             STORAGE =      461599.0938               STORAGE =         896.3983
       CONSTANT HEAD =           0.0000         CONSTANT HEAD =           0.0000
               WELLS =           0.0000                 WELLS =           0.0000
     HEAD DEP BOUNDS =       32695.1035       HEAD DEP BOUNDS =         450.8517

            TOTAL IN =      494294.1875              TOTAL IN =        1347.2500

          OUT:                                     OUT:
          ----                                     ----
             STORAGE =           0.0000               STORAGE =           0.0000
       CONSTANT HEAD =           0.0000         CONSTANT HEAD =           0.0000
               WELLS =       56000.0000                 WELLS =         500.0000
     HEAD DEP BOUNDS =      438295.9375       HEAD DEP BOUNDS =         847.2562

           TOTAL OUT =      494295.9375             TOTAL OUT =        1347.2562

            IN - OUT =          -1.7500              IN - OUT =      -6.2256E-03

 PERCENT DISCREPANCY =          -0.00     PERCENT DISCREPANCY =          -0.00






         TIME SUMMARY AT END OF TIME STEP   12 IN STRESS PERIOD    4
                    SECONDS     MINUTES      HOURS       DAYS        YEARS
                    -----------------------------------------------------------
   TIME STEP LENGTH  86400.      1440.0      24.000      1.0000     2.73785E-03
 STRESS PERIOD TIME 1.03680E+06  17280.      288.00      12.000     3.28542E-02
         TOTAL TIME 1.84032E+07 3.06720E+05  5112.0      213.00     0.58316    
1
 
 SOLVING FOR HEAD 

 OUTPUT CONTROL FOR STRESS PERIOD    4   TIME STEP   13
    SAVE HEAD FOR ALL LAYERS
    SAVE DRAWDOWN FOR ALL LAYERS
    SAVE BUDGET
    PRINT HEAD FOR ALL LAYERS
    PRINT BUDGET
 UBDSV1 SAVING "         STORAGE" ON UNIT  53 AT TIME STEP 13, STRESS PERIOD   4
 UBDSV2 SAVING "   CONSTANT HEAD" ON UNIT  53 AT TIME STEP 13, STRESS PERIOD   4
 UBDSV1 SAVING "FLOW RIGHT FACE " ON UNIT  53 AT TIME STEP 13, STRESS PERIOD   4
 UBDSV1 SAVING "FLOW FRONT FACE " ON UNIT  53 AT TIME STEP 13, STRESS PERIOD   4
 UBDSV1 SAVING "FLOW LOWER FACE " ON UNIT  53 AT TIME STEP 13, STRESS PERIOD   4
1
              HEAD IN LAYER   1 AT END OF TIME STEP  13 IN STRESS PERIOD    4
  ---------------------------------------------------------------------------

            1           2           3           4           5           6           7           8           9          10
 ........................................................................................................................
   1    9.998       9.322       8.592       7.778       6.864       5.842       4.662       3.289       1.723      2.4332E-03
   2    9.998       9.284       8.510       7.643       6.694       5.700       4.569       3.237       1.700      2.3982E-03
   3    9.998       9.215       8.345       7.348       6.281       5.391       4.385       3.141       1.660      2.3370E-03
   4    9.998       9.132       8.126       6.862       5.374       4.883       4.140       3.030       1.617      2.2722E-03
   5    9.998       9.085       7.965       6.298       2.469       4.287       3.963       2.969       1.596      2.2416E-03
   6    9.998       9.135       8.132       6.871       5.385       4.893       4.149       3.036       1.620      2.2766E-03
   7    9.998       9.224       8.363       7.371       6.308       5.416       4.405       3.155       1.667      2.3478E-03
   8    9.998       9.303       8.545       7.692       6.749       5.752       4.611       3.265       1.714      2.4198E-03
   9    9.998       9.357       8.660       7.872       6.971       5.942       4.741       3.342       1.749      2.4727E-03
  10    9.998       9.383       8.714       7.953       7.066       6.026       4.803       3.379       1.767      2.4999E-03
1
              HEAD IN LAYER   2 AT END OF TIME STEP  13 IN STRESS PERIOD    4
  ---------------------------------------------------------------------------

            1           2           3           4           5           6           7           8           9          10
 ........................................................................................................................
   1    9.998       9.316       8.582       7.764       6.848       5.825       4.647       3.277       1.715      4.7200E-03
   2    9.998       9.279       8.499       7.629       6.678       5.684       4.554       3.224       1.692      4.6562E-03
   3    9.998       9.208       8.334       7.333       6.264       5.374       4.370       3.128       1.652      4.5445E-03
   4    9.998       9.125       8.114       6.846       5.359       4.866       4.125       3.018       1.609      4.4259E-03
   5    9.998       9.078       7.953       6.282       2.900       4.275       3.948       2.957       1.588      4.3698E-03
   6    9.998       9.129       8.121       6.855       5.370       4.876       4.133       3.023       1.612      4.4340E-03
   7    9.998       9.218       8.352       7.357       6.291       5.400       4.390       3.143       1.659      4.5646E-03
   8    9.998       9.297       8.535       7.678       6.734       5.736       4.596       3.253       1.707      4.6962E-03
   9    9.998       9.351       8.651       7.860       6.957       5.926       4.727       3.330       1.741      4.7929E-03
  10    9.998       9.378       8.705       7.940       7.052       6.011       4.789       3.368       1.759      4.8423E-03
1
              HEAD IN LAYER   3 AT END OF TIME STEP  13 IN STRESS PERIOD    4
  ---------------------------------------------------------------------------

            1           2           3           4           5           6           7           8           9          10
 ........................................................................................................................
   1    9.998       9.312       8.575       7.754       6.837       5.813       4.635       3.266       1.708      5.0660E-03
   2    9.998       9.275       8.492       7.618       6.666       5.671       4.541       3.214       1.685      4.9975E-03
   3    9.998       9.204       8.326       7.322       6.251       5.361       4.357       3.118       1.644      4.8778E-03
   4    9.998       9.121       8.105       6.834       5.353       4.853       4.112       3.007       1.601      4.7506E-03
   5    9.998       9.073       7.944       6.276       3.256       4.271       3.936       2.946       1.581      4.6906E-03
   6    9.998       9.125       8.113       6.844       5.364       4.863       4.121       3.013       1.604      4.7595E-03
   7    9.998       9.214       8.344       7.346       6.279       5.387       4.378       3.132       1.652      4.8996E-03
   8    9.998       9.294       8.528       7.669       6.722       5.724       4.584       3.243       1.699      5.0410E-03
   9    9.998       9.348       8.645       7.851       6.946       5.915       4.716       3.320       1.735      5.1449E-03
  10    9.998       9.374       8.699       7.932       7.041       6.000       4.778       3.358       1.752      5.1980E-03
1
              HEAD IN LAYER   4 AT END OF TIME STEP  13 IN STRESS PERIOD    4
  ---------------------------------------------------------------------------

            1           2           3           4           5           6           7           8           9          10
 ........................................................................................................................
   1    9.998       9.310       8.571       7.749       6.831       5.806       4.629       3.261       1.704      5.0938E-03
   2    9.998       9.273       8.488       7.613       6.660       5.664       4.535       3.209       1.681      5.0249E-03
   3    9.998       9.202       8.323       7.316       6.245       5.354       4.351       3.112       1.641      4.9042E-03
   4    9.998       9.119       8.101       6.828       5.352       4.847       4.106       3.002       1.598      4.7762E-03
   5    9.998       9.071       7.940       6.275       3.426       4.271       3.930       2.941       1.578      4.7157E-03
   6    9.998       9.123       8.108       6.838       5.363       4.857       4.115       3.007       1.601      4.7852E-03
   7    9.998       9.212       8.341       7.341       6.272       5.380       4.372       3.127       1.648      4.9263E-03
   8    9.998       9.292       8.525       7.664       6.716       5.718       4.578       3.238       1.696      5.0689E-03
   9    9.998       9.346       8.641       7.846       6.940       5.909       4.710       3.315       1.731      5.1737E-03
  10    9.998       9.373       8.696       7.927       7.036       5.994       4.772       3.354       1.749      5.2273E-03

 HEAD WILL BE SAVED ON UNIT   51 AT END OF TIME STEP   13, STRESS PERIOD    4

 DRAWDOWN WILL BE SAVED ON UNIT   52 AT END OF TIME STEP   13, STRESS PERIOD    4
1
  VOLUMETRIC BUDGET FOR ENTIRE MODEL AT END OF TIME STEP   13, STRESS PERIOD   4
  ------------------------------------------------------------------------------

     CUMULATIVE VOLUMES      L**3       RATES FOR THIS TIME STEP      L**3/T
     ------------------                 ------------------------

           IN:                                      IN:
           ---                                      ---
             STORAGE =      462489.8438               STORAGE =         890.7510
       CONSTANT HEAD =           0.0000         CONSTANT HEAD =           0.0000
               WELLS =           0.0000                 WELLS =           0.0000
     HEAD DEP BOUNDS =       33148.6836       HEAD DEP BOUNDS =         453.5791

            TOTAL IN =      495638.5312              TOTAL IN =        1344.3301

          OUT:                                     OUT:
          ----                                     ----
             STORAGE =           0.0000               STORAGE =           0.0000
       CONSTANT HEAD =           0.0000         CONSTANT HEAD =           0.0000
               WELLS =       56500.0000                 WELLS =         500.0000
     HEAD DEP BOUNDS =      439140.2812       HEAD DEP BOUNDS =         844.3347

           TOTAL OUT =      495640.2812             TOTAL OUT =        1344.3347

            IN - OUT =          -1.7500              IN - OUT =      -4.6387E-03

 PERCENT DISCREPANCY =          -0.00     PERCENT DISCREPANCY =          -0.00






         TIME SUMMARY AT END OF TIME STEP   13 IN STRESS PERIOD    4
                    SECONDS     MINUTES      HOURS       DAYS        YEARS
                    -----------------------------------------------------------
   TIME STEP LENGTH  86400.      1440.0      24.000      1.0000     2.73785E-03
 STRESS PERIOD TIME 1.12320E+06  18720.      312.00      13.000     3.55921E-02
         TOTAL TIME 1.84896E+07 3.08160E+05  5136.0      214.00     0.58590    
1
 
 SOLVING FOR HEAD 

 OUTPUT CONTROL FOR STRESS PERIOD    4   TIME STEP   14
    SAVE HEAD FOR ALL LAYERS
    SAVE DRAWDOWN FOR ALL LAYERS
    SAVE BUDGET
    PRINT HEAD FOR ALL LAYERS
    PRINT BUDGET
 UBDSV1 SAVING "         STORAGE" ON UNIT  53 AT TIME STEP 14, STRESS PERIOD   4
 UBDSV2 SAVING "   CONSTANT HEAD" ON UNIT  53 AT TIME STEP 14, STRESS PERIOD   4
 UBDSV1 SAVING "FLOW RIGHT FACE " ON UNIT  53 AT TIME STEP 14, STRESS PERIOD   4
 UBDSV1 SAVING "FLOW FRONT FACE " ON UNIT  53 AT TIME STEP 14, STRESS PERIOD   4
 UBDSV1 SAVING "FLOW LOWER FACE " ON UNIT  53 AT TIME STEP 14, STRESS PERIOD   4
1
              HEAD IN LAYER   1 AT END OF TIME STEP  14 IN STRESS PERIOD    4
  ---------------------------------------------------------------------------

            1           2           3           4           5           6           7           8           9          10
 ........................................................................................................................
   1    9.998       9.317       8.584       7.766       6.850       5.827       4.649       3.279       1.717      2.4244E-03
   2    9.998       9.280       8.501       7.630       6.680       5.685       4.555       3.226       1.694      2.3894E-03
   3    9.998       9.210       8.336       7.335       6.266       5.376       4.371       3.130       1.654      2.3280E-03
   4    9.998       9.127       8.116       6.848       5.358       4.867       4.126       3.019       1.611      2.2630E-03
   5    9.998       9.080       7.956       6.285       2.452       4.271       3.948       2.958       1.590      2.2322E-03
   6    9.998       9.131       8.123       6.858       5.369       4.877       4.134       3.025       1.614      2.2674E-03
   7    9.998       9.219       8.354       7.359       6.293       5.401       4.392       3.144       1.661      2.3390E-03
   8    9.998       9.298       8.537       7.680       6.735       5.738       4.598       3.255       1.709      2.4115E-03
   9    9.998       9.352       8.652       7.861       6.958       5.928       4.729       3.332       1.744      2.4648E-03
  10    9.998       9.379       8.706       7.942       7.053       6.013       4.791       3.370       1.762      2.4921E-03
1
              HEAD IN LAYER   2 AT END OF TIME STEP  14 IN STRESS PERIOD    4
  ---------------------------------------------------------------------------

            1           2           3           4           5           6           7           8           9          10
 ........................................................................................................................
   1    9.998       9.312       8.573       7.752       6.834       5.811       4.634       3.267       1.710      4.7044E-03
   2    9.998       9.274       8.490       7.616       6.664       5.669       4.540       3.214       1.686      4.6403E-03
   3    9.998       9.204       8.325       7.320       6.249       5.359       4.356       3.118       1.646      4.5282E-03
   4    9.998       9.120       8.104       6.832       5.343       4.850       4.111       3.007       1.603      4.4092E-03
   5    9.998       9.073       7.943       6.269       2.883       4.259       3.934       2.946       1.582      4.3530E-03
   6    9.998       9.124       8.111       6.842       5.354       4.861       4.119       3.013       1.606      4.4175E-03
   7    9.998       9.213       8.343       7.344       6.277       5.385       4.377       3.132       1.653      4.5486E-03
   8    9.998       9.293       8.527       7.667       6.720       5.722       4.583       3.243       1.701      4.6811E-03
   9    9.998       9.347       8.643       7.849       6.944       5.913       4.715       3.321       1.736      4.7784E-03
  10    9.998       9.374       8.698       7.930       7.039       5.998       4.777       3.359       1.754      4.8282E-03
1
              HEAD IN LAYER   3 AT END OF TIME STEP  14 IN STRESS PERIOD    4
  ---------------------------------------------------------------------------

            1           2           3           4           5           6           7           8           9          10
 ........................................................................................................................
   1    9.998       9.308       8.566       7.742       6.823       5.798       4.622       3.256       1.702      5.0494E-03
   2    9.998       9.270       8.483       7.606       6.651       5.656       4.528       3.204       1.679      4.9806E-03
   3    9.998       9.200       8.317       7.309       6.236       5.346       4.343       3.107       1.639      4.8604E-03
   4    9.998       9.116       8.096       6.821       5.338       4.837       4.098       2.996       1.596      4.7328E-03
   5    9.998       9.069       7.934       6.263       3.239       4.255       3.921       2.935       1.575      4.6727E-03
   6    9.998       9.120       8.103       6.831       5.349       4.848       4.107       3.002       1.599      4.7419E-03
   7    9.998       9.209       8.336       7.334       6.264       5.372       4.364       3.122       1.646      4.8826E-03
   8    9.998       9.289       8.520       7.657       6.709       5.710       4.571       3.233       1.694      5.0249E-03
   9    9.998       9.344       8.637       7.840       6.933       5.901       4.704       3.311       1.729      5.1295E-03
  10    9.998       9.370       8.691       7.921       7.029       5.987       4.766       3.349       1.747      5.1830E-03
1
              HEAD IN LAYER   4 AT END OF TIME STEP  14 IN STRESS PERIOD    4
  ---------------------------------------------------------------------------

            1           2           3           4           5           6           7           8           9          10
 ........................................................................................................................
   1    9.998       9.306       8.563       7.737       6.817       5.792       4.616       3.251       1.699      5.0772E-03
   2    9.998       9.268       8.479       7.601       6.645       5.650       4.522       3.198       1.676      5.0079E-03
   3    9.998       9.197       8.313       7.303       6.230       5.339       4.337       3.102       1.635      4.8868E-03
   4    9.998       9.114       8.092       6.815       5.337       4.831       4.092       2.991       1.592      4.7583E-03
   5    9.998       9.066       7.930       6.262       3.410       4.255       3.915       2.930       1.572      4.6978E-03
   6    9.998       9.118       8.099       6.825       5.348       4.841       4.101       2.997       1.595      4.7676E-03
   7    9.998       9.207       8.332       7.328       6.258       5.366       4.358       3.117       1.643      4.9094E-03
   8    9.998       9.288       8.517       7.652       6.703       5.704       4.566       3.228       1.691      5.0527E-03
   9    9.998       9.342       8.633       7.835       6.928       5.896       4.698       3.306       1.726      5.1582E-03
  10    9.998       9.369       8.688       7.917       7.023       5.981       4.760       3.344       1.744      5.2122E-03

 HEAD WILL BE SAVED ON UNIT   51 AT END OF TIME STEP   14, STRESS PERIOD    4

 DRAWDOWN WILL BE SAVED ON UNIT   52 AT END OF TIME STEP   14, STRESS PERIOD    4
1
  VOLUMETRIC BUDGET FOR ENTIRE MODEL AT END OF TIME STEP   14, STRESS PERIOD   4
  ------------------------------------------------------------------------------

     CUMULATIVE VOLUMES      L**3       RATES FOR THIS TIME STEP      L**3/T
     ------------------                 ------------------------

           IN:                                      IN:
           ---                                      ---
             STORAGE =      463374.9688               STORAGE =         885.1400
       CONSTANT HEAD =           0.0000         CONSTANT HEAD =           0.0000
               WELLS =           0.0000                 WELLS =           0.0000
     HEAD DEP BOUNDS =       33604.9844       HEAD DEP BOUNDS =         456.3000

            TOTAL IN =      496979.9375              TOTAL IN =        1341.4399

          OUT:                                     OUT:
          ----                                     ----
             STORAGE =           0.0000               STORAGE =           0.0000
       CONSTANT HEAD =           0.0000         CONSTANT HEAD =           0.0000
               WELLS =       57000.0000                 WELLS =         500.0000
     HEAD DEP BOUNDS =      439981.7188       HEAD DEP BOUNDS =         841.4330

           TOTAL OUT =      496981.7188             TOTAL OUT =        1341.4331

            IN - OUT =          -1.7812              IN - OUT =       6.8359E-03

 PERCENT DISCREPANCY =          -0.00     PERCENT DISCREPANCY =           0.00






         TIME SUMMARY AT END OF TIME STEP   14 IN STRESS PERIOD    4
                    SECONDS     MINUTES      HOURS       DAYS        YEARS
                    -----------------------------------------------------------
   TIME STEP LENGTH  86400.      1440.0      24.000      1.0000     2.73785E-03
 STRESS PERIOD TIME 1.20960E+06  20160.      336.00      14.000     3.83299E-02
         TOTAL TIME 1.85760E+07 3.09600E+05  5160.0      215.00     0.58864    
1
 
 SOLVING FOR HEAD 

 OUTPUT CONTROL FOR STRESS PERIOD    4   TIME STEP   15
    SAVE HEAD FOR ALL LAYERS
    SAVE DRAWDOWN FOR ALL LAYERS
    SAVE BUDGET
    PRINT HEAD FOR ALL LAYERS
    PRINT BUDGET
 UBDSV1 SAVING "         STORAGE" ON UNIT  53 AT TIME STEP 15, STRESS PERIOD   4
 UBDSV2 SAVING "   CONSTANT HEAD" ON UNIT  53 AT TIME STEP 15, STRESS PERIOD   4
 UBDSV1 SAVING "FLOW RIGHT FACE " ON UNIT  53 AT TIME STEP 15, STRESS PERIOD   4
 UBDSV1 SAVING "FLOW FRONT FACE " ON UNIT  53 AT TIME STEP 15, STRESS PERIOD   4
 UBDSV1 SAVING "FLOW LOWER FACE " ON UNIT  53 AT TIME STEP 15, STRESS PERIOD   4
1
              HEAD IN LAYER   1 AT END OF TIME STEP  15 IN STRESS PERIOD    4
  ---------------------------------------------------------------------------

            1           2           3           4           5           6           7           8           9          10
 ........................................................................................................................
   1    9.998       9.313       8.575       7.754       6.836       5.813       4.636       3.269       1.712      2.4158E-03
   2    9.998       9.275       8.492       7.618       6.665       5.671       4.542       3.216       1.689      2.3806E-03
   3    9.998       9.205       8.327       7.322       6.251       5.361       4.357       3.119       1.648      2.3191E-03
   4    9.998       9.122       8.106       6.835       5.343       4.851       4.112       3.008       1.605      2.2538E-03
   5    9.998       9.075       7.946       6.272       2.436       4.255       3.934       2.947       1.584      2.2231E-03
   6    9.998       9.126       8.114       6.845       5.354       4.861       4.120       3.014       1.608      2.2585E-03
   7    9.998       9.214       8.345       7.346       6.279       5.387       4.378       3.134       1.655      2.3305E-03
   8    9.998       9.294       8.529       7.668       6.722       5.724       4.585       3.245       1.703      2.4032E-03
   9    9.998       9.348       8.644       7.850       6.946       5.915       4.717       3.323       1.739      2.4567E-03
  10    9.998       9.375       8.699       7.931       7.041       6.000       4.779       3.361       1.757      2.4843E-03
1
              HEAD IN LAYER   2 AT END OF TIME STEP  15 IN STRESS PERIOD    4
  ---------------------------------------------------------------------------

            1           2           3           4           5           6           7           8           9          10
 ........................................................................................................................
   1    9.998       9.307       8.565       7.740       6.820       5.796       4.621       3.257       1.704      4.6889E-03
   2    9.998       9.269       8.481       7.604       6.649       5.654       4.527       3.204       1.681      4.6245E-03
   3    9.998       9.199       8.316       7.307       6.234       5.344       4.342       3.107       1.640      4.5119E-03
   4    9.998       9.116       8.095       6.819       5.328       4.835       4.097       2.996       1.597      4.3926E-03
   5    9.998       9.068       7.934       6.255       2.866       4.243       3.919       2.935       1.576      4.3363E-03
   6    9.998       9.119       8.102       6.829       5.339       4.845       4.105       3.002       1.600      4.4011E-03
   7    9.998       9.209       8.334       7.332       6.262       5.370       4.363       3.122       1.647      4.5329E-03
   8    9.998       9.289       8.519       7.655       6.707       5.708       4.571       3.234       1.696      4.6661E-03
   9    9.998       9.343       8.635       7.838       6.931       5.900       4.703       3.311       1.731      4.7640E-03
  10    9.998       9.370       8.690       7.919       7.027       5.985       4.765       3.350       1.749      4.8142E-03
1
              HEAD IN LAYER   3 AT END OF TIME STEP  15 IN STRESS PERIOD    4
  ---------------------------------------------------------------------------

            1           2           3           4           5           6           7           8           9          10
 ........................................................................................................................
   1    9.998       9.303       8.558       7.730       6.809       5.784       4.609       3.246       1.697      5.0329E-03
   2    9.998       9.265       8.474       7.594       6.637       5.641       4.515       3.193       1.673      4.9638E-03
   3    9.998       9.195       8.308       7.296       6.222       5.331       4.329       3.097       1.633      4.8431E-03
   4    9.998       9.111       8.086       6.808       5.322       4.822       4.084       2.985       1.590      4.7152E-03
   5    9.998       9.064       7.925       6.249       3.223       4.239       3.907       2.924       1.569      4.6549E-03
   6    9.998       9.115       8.094       6.818       5.334       4.832       4.093       2.991       1.593      4.7245E-03
   7    9.998       9.205       8.327       7.322       6.250       5.357       4.351       3.112       1.640      4.8658E-03
   8    9.998       9.285       8.512       7.646       6.695       5.696       4.559       3.223       1.689      5.0089E-03
   9    9.998       9.340       8.629       7.829       6.920       5.888       4.692       3.302       1.724      5.1142E-03
  10    9.998       9.366       8.684       7.911       7.016       5.974       4.754       3.340       1.742      5.1681E-03
1
              HEAD IN LAYER   4 AT END OF TIME STEP  15 IN STRESS PERIOD    4
  ---------------------------------------------------------------------------

            1           2           3           4           5           6           7           8           9          10
 ........................................................................................................................
   1    9.998       9.301       8.554       7.725       6.803       5.778       4.603       3.241       1.693      5.0606E-03
   2    9.998       9.263       8.470       7.589       6.631       5.635       4.509       3.188       1.670      4.9910E-03
   3    9.998       9.193       8.304       7.291       6.215       5.324       4.323       3.091       1.629      4.8694E-03
   4    9.998       9.109       8.082       6.802       5.321       4.815       4.078       2.980       1.586      4.7406E-03
   5    9.998       9.061       7.921       6.248       3.393       4.239       3.901       2.919       1.566      4.6800E-03
   6    9.998       9.113       8.090       6.812       5.333       4.826       4.087       2.986       1.589      4.7501E-03
   7    9.998       9.203       8.323       7.316       6.244       5.351       4.345       3.106       1.637      4.8925E-03
   8    9.998       9.283       8.508       7.641       6.689       5.690       4.553       3.218       1.685      5.0367E-03
   9    9.998       9.338       8.626       7.824       6.915       5.882       4.686       3.297       1.721      5.1429E-03
  10    9.998       9.365       8.681       7.906       7.011       5.968       4.749       3.335       1.739      5.1972E-03

 HEAD WILL BE SAVED ON UNIT   51 AT END OF TIME STEP   15, STRESS PERIOD    4

 DRAWDOWN WILL BE SAVED ON UNIT   52 AT END OF TIME STEP   15, STRESS PERIOD    4
1
  VOLUMETRIC BUDGET FOR ENTIRE MODEL AT END OF TIME STEP   15, STRESS PERIOD   4
  ------------------------------------------------------------------------------

     CUMULATIVE VOLUMES      L**3       RATES FOR THIS TIME STEP      L**3/T
     ------------------                 ------------------------

           IN:                                      IN:
           ---                                      ---
             STORAGE =      464254.5312               STORAGE =         879.5560
       CONSTANT HEAD =           0.0000         CONSTANT HEAD =           0.0000
               WELLS =           0.0000                 WELLS =           0.0000
     HEAD DEP BOUNDS =       34063.9648       HEAD DEP BOUNDS =         458.9808

            TOTAL IN =      498318.5000              TOTAL IN =        1338.5369

          OUT:                                     OUT:
          ----                                     ----
             STORAGE =           0.0000               STORAGE =           0.0000
       CONSTANT HEAD =           0.0000         CONSTANT HEAD =           0.0000
               WELLS =       57500.0000                 WELLS =         500.0000
     HEAD DEP BOUNDS =      440820.2812       HEAD DEP BOUNDS =         838.5510

           TOTAL OUT =      498320.2812             TOTAL OUT =        1338.5510

            IN - OUT =          -1.7812              IN - OUT =      -1.4160E-02

 PERCENT DISCREPANCY =          -0.00     PERCENT DISCREPANCY =          -0.00






         TIME SUMMARY AT END OF TIME STEP   15 IN STRESS PERIOD    4
                    SECONDS     MINUTES      HOURS       DAYS        YEARS
                    -----------------------------------------------------------
   TIME STEP LENGTH  86400.      1440.0      24.000      1.0000     2.73785E-03
 STRESS PERIOD TIME 1.29600E+06  21600.      360.00      15.000     4.10678E-02
         TOTAL TIME 1.86624E+07 3.11040E+05  5184.0      216.00     0.59138    
1
 
 SOLVING FOR HEAD 

 OUTPUT CONTROL FOR STRESS PERIOD    4   TIME STEP   16
    SAVE HEAD FOR ALL LAYERS
    SAVE DRAWDOWN FOR ALL LAYERS
    SAVE BUDGET
    PRINT HEAD FOR ALL LAYERS
    PRINT BUDGET
 UBDSV1 SAVING "         STORAGE" ON UNIT  53 AT TIME STEP 16, STRESS PERIOD   4
 UBDSV2 SAVING "   CONSTANT HEAD" ON UNIT  53 AT TIME STEP 16, STRESS PERIOD   4
 UBDSV1 SAVING "FLOW RIGHT FACE " ON UNIT  53 AT TIME STEP 16, STRESS PERIOD   4
 UBDSV1 SAVING "FLOW FRONT FACE " ON UNIT  53 AT TIME STEP 16, STRESS PERIOD   4
 UBDSV1 SAVING "FLOW LOWER FACE " ON UNIT  53 AT TIME STEP 16, STRESS PERIOD   4
1
              HEAD IN LAYER   1 AT END OF TIME STEP  16 IN STRESS PERIOD    4
  ---------------------------------------------------------------------------

            1           2           3           4           5           6           7           8           9          10
 ........................................................................................................................
   1    9.998       9.308       8.566       7.742       6.822       5.798       4.623       3.259       1.706      2.4074E-03
   2    9.998       9.270       8.483       7.606       6.651       5.656       4.529       3.206       1.683      2.3720E-03
   3    9.998       9.200       8.318       7.309       6.236       5.345       4.343       3.109       1.642      2.3102E-03
   4    9.998       9.117       8.097       6.822       5.327       4.835       4.098       2.997       1.599      2.2448E-03
   5    9.998       9.070       7.937       6.258       2.419       4.239       3.920       2.936       1.578      2.2140E-03
   6    9.998       9.121       8.104       6.832       5.338       4.846       4.106       3.003       1.602      2.2494E-03
   7    9.998       9.210       8.336       7.334       6.264       5.372       4.365       3.124       1.650      2.3218E-03
   8    9.998       9.290       8.520       7.657       6.708       5.710       4.572       3.235       1.698      2.3949E-03
   9    9.998       9.344       8.637       7.840       6.933       5.902       4.705       3.313       1.733      2.4489E-03
  10    9.998       9.371       8.691       7.921       7.028       5.987       4.767       3.352       1.752      2.4766E-03
1
              HEAD IN LAYER   2 AT END OF TIME STEP  16 IN STRESS PERIOD    4
  ---------------------------------------------------------------------------

            1           2           3           4           5           6           7           8           9          10
 ........................................................................................................................
   1    9.998       9.302       8.556       7.728       6.806       5.782       4.608       3.247       1.698      4.6735E-03
   2    9.998       9.265       8.472       7.592       6.635       5.640       4.514       3.194       1.675      4.6088E-03
   3    9.998       9.194       8.307       7.295       6.220       5.329       4.328       3.097       1.634      4.4958E-03
   4    9.998       9.111       8.085       6.806       5.312       4.819       4.083       2.985       1.591      4.3761E-03
   5    9.998       9.063       7.924       6.242       2.849       4.227       3.905       2.924       1.570      4.3197E-03
   6    9.998       9.115       8.093       6.816       5.324       4.830       4.091       2.991       1.594      4.3848E-03
   7    9.998       9.204       8.325       7.320       6.248       5.355       4.350       3.112       1.642      4.5172E-03
   8    9.998       9.284       8.510       7.644       6.693       5.694       4.558       3.224       1.690      4.6511E-03
   9    9.998       9.339       8.627       7.827       6.918       5.887       4.691       3.302       1.726      4.7497E-03
  10    9.998       9.366       8.682       7.909       7.014       5.973       4.754       3.341       1.744      4.8002E-03
1
              HEAD IN LAYER   3 AT END OF TIME STEP  16 IN STRESS PERIOD    4
  ---------------------------------------------------------------------------

            1           2           3           4           5           6           7           8           9          10
 ........................................................................................................................
   1    9.998       9.299       8.549       7.718       6.795       5.770       4.596       3.236       1.691      5.0165E-03
   2    9.998       9.261       8.465       7.582       6.623       5.627       4.501       3.183       1.668      4.9471E-03
   3    9.998       9.190       8.299       7.284       6.207       5.316       4.316       3.086       1.627      4.8259E-03
   4    9.998       9.106       8.077       6.795       5.307       4.806       4.070       2.975       1.584      4.6976E-03
   5    9.998       9.059       7.916       6.236       3.206       4.223       3.893       2.914       1.563      4.6373E-03
   6    9.998       9.110       8.085       6.805       5.319       4.817       4.079       2.981       1.587      4.7071E-03
   7    9.998       9.200       8.318       7.309       6.236       5.343       4.338       3.101       1.635      4.8492E-03
   8    9.998       9.281       8.504       7.634       6.682       5.682       4.546       3.214       1.683      4.9929E-03
   9    9.998       9.336       8.621       7.818       6.908       5.875       4.680       3.292       1.719      5.0989E-03
  10    9.998       9.362       8.676       7.900       7.004       5.961       4.743       3.331       1.737      5.1532E-03
1
              HEAD IN LAYER   4 AT END OF TIME STEP  16 IN STRESS PERIOD    4
  ---------------------------------------------------------------------------

            1           2           3           4           5           6           7           8           9          10
 ........................................................................................................................
   1    9.998       9.297       8.546       7.713       6.789       5.763       4.590       3.231       1.688      5.0442E-03
   2    9.998       9.259       8.462       7.577       6.617       5.620       4.495       3.178       1.664      4.9743E-03
   3    9.998       9.188       8.295       7.278       6.201       5.309       4.309       3.081       1.623      4.8522E-03
   4    9.998       9.104       8.073       6.789       5.306       4.800       4.064       2.969       1.580      4.7230E-03
   5    9.998       9.056       7.911       6.235       3.377       4.223       3.887       2.908       1.560      4.6623E-03
   6    9.998       9.108       8.081       6.799       5.318       4.811       4.073       2.976       1.583      4.7327E-03
   7    9.998       9.198       8.314       7.304       6.230       5.336       4.332       3.096       1.631      4.8758E-03
   8    9.998       9.279       8.500       7.629       6.676       5.676       4.540       3.209       1.680      5.0207E-03
   9    9.998       9.334       8.618       7.814       6.902       5.869       4.674       3.287       1.716      5.1276E-03
  10    9.998       9.361       8.673       7.896       6.999       5.956       4.737       3.326       1.734      5.1823E-03

 HEAD WILL BE SAVED ON UNIT   51 AT END OF TIME STEP   16, STRESS PERIOD    4

 DRAWDOWN WILL BE SAVED ON UNIT   52 AT END OF TIME STEP   16, STRESS PERIOD    4
1
  VOLUMETRIC BUDGET FOR ENTIRE MODEL AT END OF TIME STEP   16, STRESS PERIOD   4
  ------------------------------------------------------------------------------

     CUMULATIVE VOLUMES      L**3       RATES FOR THIS TIME STEP      L**3/T
     ------------------                 ------------------------

           IN:                                      IN:
           ---                                      ---
             STORAGE =      465128.5625               STORAGE =         874.0173
       CONSTANT HEAD =           0.0000         CONSTANT HEAD =           0.0000
               WELLS =           0.0000                 WELLS =           0.0000
     HEAD DEP BOUNDS =       34525.6445       HEAD DEP BOUNDS =         461.6796

            TOTAL IN =      499654.2188              TOTAL IN =        1335.6969

          OUT:                                     OUT:
          ----                                     ----
             STORAGE =           0.0000               STORAGE =           0.0000
       CONSTANT HEAD =           0.0000         CONSTANT HEAD =           0.0000
               WELLS =       58000.0000                 WELLS =         500.0000
     HEAD DEP BOUNDS =      441655.9688       HEAD DEP BOUNDS =         835.6894

           TOTAL OUT =      499655.9688             TOTAL OUT =        1335.6895

            IN - OUT =          -1.7500              IN - OUT =       7.4463E-03

 PERCENT DISCREPANCY =          -0.00     PERCENT DISCREPANCY =           0.00






         TIME SUMMARY AT END OF TIME STEP   16 IN STRESS PERIOD    4
                    SECONDS     MINUTES      HOURS       DAYS        YEARS
                    -----------------------------------------------------------
   TIME STEP LENGTH  86400.      1440.0      24.000      1.0000     2.73785E-03
 STRESS PERIOD TIME 1.38240E+06  23040.      384.00      16.000     4.38056E-02
         TOTAL TIME 1.87488E+07 3.12480E+05  5208.0      217.00     0.59411    
1
 
 SOLVING FOR HEAD 

 OUTPUT CONTROL FOR STRESS PERIOD    4   TIME STEP   17
    SAVE HEAD FOR ALL LAYERS
    SAVE DRAWDOWN FOR ALL LAYERS
    SAVE BUDGET
    PRINT HEAD FOR ALL LAYERS
    PRINT BUDGET
 UBDSV1 SAVING "         STORAGE" ON UNIT  53 AT TIME STEP 17, STRESS PERIOD   4
 UBDSV2 SAVING "   CONSTANT HEAD" ON UNIT  53 AT TIME STEP 17, STRESS PERIOD   4
 UBDSV1 SAVING "FLOW RIGHT FACE " ON UNIT  53 AT TIME STEP 17, STRESS PERIOD   4
 UBDSV1 SAVING "FLOW FRONT FACE " ON UNIT  53 AT TIME STEP 17, STRESS PERIOD   4
 UBDSV1 SAVING "FLOW LOWER FACE " ON UNIT  53 AT TIME STEP 17, STRESS PERIOD   4
1
              HEAD IN LAYER   1 AT END OF TIME STEP  17 IN STRESS PERIOD    4
  ---------------------------------------------------------------------------

            1           2           3           4           5           6           7           8           9          10
 ........................................................................................................................
   1    9.998       9.304       8.558       7.730       6.808       5.784       4.610       3.249       1.701      2.3989E-03
   2    9.998       9.266       8.474       7.594       6.637       5.641       4.515       3.195       1.677      2.3634E-03
   3    9.998       9.195       8.309       7.297       6.222       5.330       4.329       3.098       1.636      2.3013E-03
   4    9.998       9.112       8.088       6.809       5.312       4.820       4.083       2.986       1.593      2.2359E-03
   5    9.998       9.065       7.927       6.245       2.403       4.223       3.905       2.925       1.572      2.2051E-03
   6    9.998       9.116       8.095       6.819       5.323       4.830       4.092       2.993       1.596      2.2407E-03
   7    9.998       9.205       8.327       7.322       6.250       5.357       4.351       3.113       1.644      2.3132E-03
   8    9.998       9.285       8.512       7.646       6.695       5.696       4.560       3.226       1.692      2.3866E-03
   9    9.998       9.340       8.629       7.829       6.920       5.888       4.693       3.304       1.728      2.4411E-03
  10    9.998       9.367       8.684       7.910       7.016       5.974       4.756       3.343       1.747      2.4689E-03
1
              HEAD IN LAYER   2 AT END OF TIME STEP  17 IN STRESS PERIOD    4
  ---------------------------------------------------------------------------

            1           2           3           4           5           6           7           8           9          10
 ........................................................................................................................
   1    9.998       9.298       8.548       7.716       6.793       5.768       4.595       3.237       1.693      4.6581E-03
   2    9.998       9.260       8.464       7.580       6.621       5.625       4.500       3.183       1.669      4.5932E-03
   3    9.998       9.189       8.298       7.282       6.205       5.314       4.314       3.086       1.628      4.4798E-03
   4    9.998       9.106       8.076       6.793       5.297       4.803       4.068       2.974       1.585      4.3597E-03
   5    9.998       9.058       7.915       6.229       2.833       4.211       3.891       2.913       1.564      4.3033E-03
   6    9.998       9.110       8.084       6.804       5.309       4.814       4.078       2.981       1.588      4.3687E-03
   7    9.998       9.199       8.317       7.308       6.234       5.341       4.337       3.101       1.636      4.5016E-03
   8    9.998       9.280       8.502       7.632       6.680       5.681       4.545       3.214       1.685      4.6362E-03
   9    9.998       9.335       8.620       7.816       6.906       5.874       4.679       3.293       1.721      4.7355E-03
  10    9.998       9.362       8.675       7.898       7.002       5.960       4.742       3.332       1.739      4.7863E-03
1
              HEAD IN LAYER   3 AT END OF TIME STEP  17 IN STRESS PERIOD    4
  ---------------------------------------------------------------------------

            1           2           3           4           5           6           7           8           9          10
 ........................................................................................................................
   1    9.998       9.294       8.541       7.707       6.781       5.755       4.583       3.226       1.686      5.0002E-03
   2    9.998       9.256       8.456       7.570       6.609       5.612       4.488       3.173       1.662      4.9305E-03
   3    9.998       9.185       8.290       7.271       6.192       5.301       4.302       3.076       1.621      4.8089E-03
   4    9.998       9.102       8.068       6.782       5.292       4.790       4.056       2.964       1.578      4.6802E-03
   5    9.998       9.054       7.906       6.223       3.190       4.207       3.879       2.903       1.557      4.6198E-03
   6    9.998       9.106       8.076       6.792       5.304       4.802       4.065       2.970       1.581      4.6899E-03
   7    9.998       9.195       8.309       7.297       6.221       5.328       4.325       3.091       1.629      4.8326E-03
   8    9.998       9.276       8.495       7.623       6.668       5.669       4.534       3.204       1.678      4.9771E-03
   9    9.998       9.332       8.613       7.807       6.895       5.862       4.668       3.283       1.714      5.0838E-03
  10    9.998       9.358       8.669       7.890       6.992       5.949       4.731       3.322       1.732      5.1385E-03
1
              HEAD IN LAYER   4 AT END OF TIME STEP  17 IN STRESS PERIOD    4
  ---------------------------------------------------------------------------

            1           2           3           4           5           6           7           8           9          10
 ........................................................................................................................
   1    9.998       9.292       8.537       7.702       6.775       5.749       4.577       3.221       1.682      5.0278E-03
   2    9.998       9.254       8.453       7.565       6.603       5.606       4.482       3.168       1.659      4.9576E-03
   3    9.998       9.183       8.286       7.266       6.186       5.294       4.296       3.070       1.618      4.8351E-03
   4    9.998       9.099       8.064       6.776       5.291       4.784       4.050       2.959       1.574      4.7056E-03
   5    9.998       9.052       7.902       6.222       3.361       4.207       3.873       2.898       1.554      4.6447E-03
   6    9.998       9.104       8.072       6.787       5.303       4.795       4.059       2.965       1.578      4.7154E-03
   7    9.998       9.193       8.306       7.292       6.215       5.322       4.319       3.086       1.626      4.8591E-03
   8    9.998       9.275       8.492       7.618       6.663       5.663       4.528       3.199       1.675      5.0048E-03
   9    9.998       9.330       8.610       7.803       6.890       5.856       4.662       3.278       1.711      5.1124E-03
  10    9.998       9.357       8.665       7.885       6.987       5.943       4.726       3.318       1.729      5.1676E-03

 HEAD WILL BE SAVED ON UNIT   51 AT END OF TIME STEP   17, STRESS PERIOD    4

 DRAWDOWN WILL BE SAVED ON UNIT   52 AT END OF TIME STEP   17, STRESS PERIOD    4
1
  VOLUMETRIC BUDGET FOR ENTIRE MODEL AT END OF TIME STEP   17, STRESS PERIOD   4
  ------------------------------------------------------------------------------

     CUMULATIVE VOLUMES      L**3       RATES FOR THIS TIME STEP      L**3/T
     ------------------                 ------------------------

           IN:                                      IN:
           ---                                      ---
             STORAGE =      465997.0625               STORAGE =         868.5093
       CONSTANT HEAD =           0.0000         CONSTANT HEAD =           0.0000
               WELLS =           0.0000                 WELLS =           0.0000
     HEAD DEP BOUNDS =       34989.9883       HEAD DEP BOUNDS =         464.3433

            TOTAL IN =      500987.0625              TOTAL IN =        1332.8525

          OUT:                                     OUT:
          ----                                     ----
             STORAGE =           0.0000               STORAGE =           0.0000
       CONSTANT HEAD =           0.0000         CONSTANT HEAD =           0.0000
               WELLS =       58500.0000                 WELLS =         500.0000
     HEAD DEP BOUNDS =      442488.8125       HEAD DEP BOUNDS =         832.8458

           TOTAL OUT =      500988.8125             TOTAL OUT =        1332.8458

            IN - OUT =          -1.7500              IN - OUT =       6.7139E-03

 PERCENT DISCREPANCY =          -0.00     PERCENT DISCREPANCY =           0.00






         TIME SUMMARY AT END OF TIME STEP   17 IN STRESS PERIOD    4
                    SECONDS     MINUTES      HOURS       DAYS        YEARS
                    -----------------------------------------------------------
   TIME STEP LENGTH  86400.      1440.0      24.000      1.0000     2.73785E-03
 STRESS PERIOD TIME 1.46880E+06  24480.      408.00      17.000     4.65435E-02
         TOTAL TIME 1.88352E+07 3.13920E+05  5232.0      218.00     0.59685    
1
 
 SOLVING FOR HEAD 

 OUTPUT CONTROL FOR STRESS PERIOD    4   TIME STEP   18
    SAVE HEAD FOR ALL LAYERS
    SAVE DRAWDOWN FOR ALL LAYERS
    SAVE BUDGET
    PRINT HEAD FOR ALL LAYERS
    PRINT BUDGET
 UBDSV1 SAVING "         STORAGE" ON UNIT  53 AT TIME STEP 18, STRESS PERIOD   4
 UBDSV2 SAVING "   CONSTANT HEAD" ON UNIT  53 AT TIME STEP 18, STRESS PERIOD   4
 UBDSV1 SAVING "FLOW RIGHT FACE " ON UNIT  53 AT TIME STEP 18, STRESS PERIOD   4
 UBDSV1 SAVING "FLOW FRONT FACE " ON UNIT  53 AT TIME STEP 18, STRESS PERIOD   4
 UBDSV1 SAVING "FLOW LOWER FACE " ON UNIT  53 AT TIME STEP 18, STRESS PERIOD   4
1
              HEAD IN LAYER   1 AT END OF TIME STEP  18 IN STRESS PERIOD    4
  ---------------------------------------------------------------------------

            1           2           3           4           5           6           7           8           9          10
 ........................................................................................................................
   1    9.998       9.299       8.549       7.718       6.794       5.770       4.597       3.239       1.695      2.3905E-03
   2    9.998       9.261       8.465       7.582       6.623       5.627       4.502       3.185       1.671      2.3548E-03
   3    9.998       9.191       8.299       7.284       6.207       5.315       4.316       3.088       1.630      2.2925E-03
   4    9.998       9.107       8.078       6.796       5.296       4.804       4.069       2.976       1.587      2.2268E-03
   5    9.998       9.060       7.918       6.232       2.387       4.207       3.891       2.914       1.566      2.1961E-03
   6    9.998       9.111       8.086       6.807       5.308       4.815       4.078       2.982       1.590      2.2319E-03
   7    9.998       9.201       8.318       7.310       6.236       5.342       4.338       3.103       1.638      2.3046E-03
   8    9.998       9.281       8.504       7.634       6.682       5.682       4.547       3.216       1.687      2.3785E-03
   9    9.998       9.336       8.621       7.818       6.907       5.875       4.681       3.295       1.723      2.4332E-03
  10    9.998       9.363       8.676       7.900       7.004       5.962       4.744       3.334       1.741      2.4612E-03
1
              HEAD IN LAYER   2 AT END OF TIME STEP  18 IN STRESS PERIOD    4
  ---------------------------------------------------------------------------

            1           2           3           4           5           6           7           8           9          10
 ........................................................................................................................
   1    9.998       9.294       8.539       7.705       6.779       5.754       4.582       3.227       1.687      4.6429E-03
   2    9.998       9.256       8.455       7.568       6.607       5.611       4.487       3.173       1.664      4.5777E-03
   3    9.998       9.185       8.289       7.270       6.190       5.299       4.301       3.076       1.623      4.4639E-03
   4    9.998       9.101       8.067       6.780       5.282       4.788       4.055       2.964       1.579      4.3435E-03
   5    9.998       9.054       7.906       6.216       2.817       4.195       3.877       2.903       1.558      4.2869E-03
   6    9.998       9.105       8.075       6.791       5.294       4.799       4.064       2.970       1.582      4.3526E-03
   7    9.998       9.195       8.308       7.296       6.220       5.326       4.324       3.091       1.631      4.4861E-03
   8    9.998       9.276       8.494       7.621       6.667       5.667       4.533       3.205       1.680      4.6215E-03
   9    9.998       9.331       8.612       7.806       6.893       5.861       4.667       3.284       1.716      4.7213E-03
  10    9.998       9.358       8.667       7.888       6.990       5.947       4.731       3.323       1.734      4.7726E-03
1
              HEAD IN LAYER   3 AT END OF TIME STEP  18 IN STRESS PERIOD    4
  ---------------------------------------------------------------------------

            1           2           3           4           5           6           7           8           9          10
 ........................................................................................................................
   1    9.998       9.290       8.532       7.695       6.767       5.741       4.570       3.217       1.680      4.9839E-03
   2    9.998       9.252       8.448       7.558       6.595       5.598       4.475       3.163       1.657      4.9140E-03
   3    9.998       9.181       8.281       7.259       6.178       5.286       4.289       3.065       1.616      4.7920E-03
   4    9.998       9.097       8.059       6.769       5.277       4.775       4.042       2.953       1.572      4.6629E-03
   5    9.998       9.049       7.897       6.210       3.174       4.192       3.865       2.892       1.551      4.6024E-03
   6    9.998       9.101       8.067       6.780       5.289       4.787       4.052       2.960       1.575      4.6729E-03
   7    9.998       9.191       8.301       7.285       6.207       5.314       4.312       3.081       1.624      4.8161E-03
   8    9.998       9.272       8.487       7.612       6.655       5.655       4.521       3.195       1.673      4.9614E-03
   9    9.998       9.328       8.605       7.797       6.882       5.849       4.656       3.274       1.709      5.0687E-03
  10    9.998       9.355       8.661       7.879       6.980       5.936       4.720       3.313       1.727      5.1238E-03
1
              HEAD IN LAYER   4 AT END OF TIME STEP  18 IN STRESS PERIOD    4
  ---------------------------------------------------------------------------

            1           2           3           4           5           6           7           8           9          10
 ........................................................................................................................
   1    9.998       9.288       8.529       7.690       6.762       5.735       4.564       3.211       1.677      5.0115E-03
   2    9.998       9.250       8.444       7.553       6.589       5.592       4.469       3.158       1.653      4.9411E-03
   3    9.998       9.179       8.277       7.254       6.172       5.279       4.283       3.060       1.612      4.8181E-03
   4    9.998       9.095       8.055       6.763       5.276       4.769       4.036       2.948       1.568      4.6882E-03
   5    9.998       9.047       7.893       6.209       3.345       4.192       3.859       2.887       1.548      4.6273E-03
   6    9.998       9.099       8.063       6.774       5.288       4.780       4.046       2.955       1.572      4.6983E-03
   7    9.998       9.189       8.297       7.280       6.201       5.308       4.306       3.076       1.620      4.8426E-03
   8    9.998       9.270       8.484       7.607       6.650       5.649       4.516       3.190       1.669      4.9891E-03
   9    9.998       9.326       8.602       7.792       6.877       5.843       4.650       3.269       1.705      5.0973E-03
  10    9.998       9.353       8.658       7.875       6.975       5.931       4.714       3.309       1.724      5.1528E-03

 HEAD WILL BE SAVED ON UNIT   51 AT END OF TIME STEP   18, STRESS PERIOD    4

 DRAWDOWN WILL BE SAVED ON UNIT   52 AT END OF TIME STEP   18, STRESS PERIOD    4
1
  VOLUMETRIC BUDGET FOR ENTIRE MODEL AT END OF TIME STEP   18, STRESS PERIOD   4
  ------------------------------------------------------------------------------

     CUMULATIVE VOLUMES      L**3       RATES FOR THIS TIME STEP      L**3/T
     ------------------                 ------------------------

           IN:                                      IN:
           ---                                      ---
             STORAGE =      466860.0938               STORAGE =         863.0399
       CONSTANT HEAD =           0.0000         CONSTANT HEAD =           0.0000
               WELLS =           0.0000                 WELLS =           0.0000
     HEAD DEP BOUNDS =       35456.9727       HEAD DEP BOUNDS =         466.9834

            TOTAL IN =      502317.0625              TOTAL IN =        1330.0233

          OUT:                                     OUT:
          ----                                     ----
             STORAGE =           0.0000               STORAGE =           0.0000
       CONSTANT HEAD =           0.0000         CONSTANT HEAD =           0.0000
               WELLS =       59000.0000                 WELLS =         500.0000
     HEAD DEP BOUNDS =      443318.8438       HEAD DEP BOUNDS =         830.0190

           TOTAL OUT =      502318.8438             TOTAL OUT =        1330.0190

            IN - OUT =          -1.7812              IN - OUT =       4.2725E-03

 PERCENT DISCREPANCY =          -0.00     PERCENT DISCREPANCY =           0.00






         TIME SUMMARY AT END OF TIME STEP   18 IN STRESS PERIOD    4
                    SECONDS     MINUTES      HOURS       DAYS        YEARS
                    -----------------------------------------------------------
   TIME STEP LENGTH  86400.      1440.0      24.000      1.0000     2.73785E-03
 STRESS PERIOD TIME 1.55520E+06  25920.      432.00      18.000     4.92813E-02
         TOTAL TIME 1.89216E+07 3.15360E+05  5256.0      219.00     0.59959    
1
 
 SOLVING FOR HEAD 

 OUTPUT CONTROL FOR STRESS PERIOD    4   TIME STEP   19
    SAVE HEAD FOR ALL LAYERS
    SAVE DRAWDOWN FOR ALL LAYERS
    SAVE BUDGET
    PRINT HEAD FOR ALL LAYERS
    PRINT BUDGET
 UBDSV1 SAVING "         STORAGE" ON UNIT  53 AT TIME STEP 19, STRESS PERIOD   4
 UBDSV2 SAVING "   CONSTANT HEAD" ON UNIT  53 AT TIME STEP 19, STRESS PERIOD   4
 UBDSV1 SAVING "FLOW RIGHT FACE " ON UNIT  53 AT TIME STEP 19, STRESS PERIOD   4
 UBDSV1 SAVING "FLOW FRONT FACE " ON UNIT  53 AT TIME STEP 19, STRESS PERIOD   4
 UBDSV1 SAVING "FLOW LOWER FACE " ON UNIT  53 AT TIME STEP 19, STRESS PERIOD   4
1
              HEAD IN LAYER   1 AT END OF TIME STEP  19 IN STRESS PERIOD    4
  ---------------------------------------------------------------------------

            1           2           3           4           5           6           7           8           9          10
 ........................................................................................................................
   1    9.998       9.295       8.540       7.706       6.781       5.755       4.584       3.229       1.689      2.3822E-03
   2    9.998       9.257       8.457       7.570       6.609       5.612       4.489       3.175       1.666      2.3463E-03
   3    9.998       9.186       8.290       7.272       6.192       5.300       4.302       3.077       1.625      2.2840E-03
   4    9.998       9.103       8.069       6.783       5.281       4.789       4.056       2.965       1.581      2.2180E-03
   5    9.998       9.055       7.908       6.219       2.370       4.191       3.877       2.904       1.560      2.1872E-03
   6    9.998       9.107       8.077       6.794       5.293       4.800       4.065       2.971       1.584      2.2230E-03
   7    9.998       9.196       8.310       7.298       6.222       5.328       4.325       3.093       1.633      2.2961E-03
   8    9.998       9.277       8.495       7.623       6.668       5.669       4.535       3.206       1.682      2.3705E-03
   9    9.998       9.332       8.613       7.807       6.895       5.862       4.669       3.286       1.718      2.4253E-03
  10    9.998       9.359       8.668       7.889       6.992       5.949       4.732       3.325       1.736      2.4537E-03
1
              HEAD IN LAYER   2 AT END OF TIME STEP  19 IN STRESS PERIOD    4
  ---------------------------------------------------------------------------

            1           2           3           4           5           6           7           8           9          10
 ........................................................................................................................
   1    9.998       9.289       8.530       7.693       6.765       5.740       4.569       3.217       1.682      4.6278E-03
   2    9.998       9.251       8.446       7.556       6.593       5.596       4.474       3.163       1.658      4.5623E-03
   3    9.998       9.180       8.280       7.257       6.176       5.284       4.287       3.065       1.617      4.4481E-03
   4    9.998       9.096       8.058       6.768       5.267       4.772       4.041       2.953       1.573      4.3273E-03
   5    9.998       9.049       7.896       6.203       2.801       4.180       3.863       2.892       1.553      4.2707E-03
   6    9.998       9.100       8.066       6.779       5.279       4.784       4.050       2.960       1.577      4.3367E-03
   7    9.998       9.190       8.299       7.284       6.206       5.312       4.311       3.081       1.625      4.4708E-03
   8    9.998       9.272       8.486       7.610       6.653       5.653       4.521       3.195       1.674      4.6068E-03
   9    9.998       9.327       8.604       7.795       6.881       5.848       4.655       3.274       1.711      4.7073E-03
  10    9.998       9.354       8.660       7.878       6.978       5.935       4.719       3.314       1.729      4.7589E-03
1
              HEAD IN LAYER   3 AT END OF TIME STEP  19 IN STRESS PERIOD    4
  ---------------------------------------------------------------------------

            1           2           3           4           5           6           7           8           9          10
 ........................................................................................................................
   1    9.998       9.285       8.524       7.683       6.754       5.727       4.557       3.207       1.675      4.9678E-03
   2    9.998       9.247       8.439       7.546       6.581       5.584       4.462       3.153       1.651      4.8976E-03
   3    9.998       9.176       8.272       7.247       6.163       5.271       4.275       3.055       1.610      4.7751E-03
   4    9.998       9.092       8.050       6.756       5.262       4.760       4.029       2.943       1.566      4.6458E-03
   5    9.998       9.044       7.888       6.197       3.158       4.176       3.851       2.882       1.546      4.5852E-03
   6    9.998       9.096       8.058       6.767       5.274       4.771       4.038       2.950       1.570      4.6559E-03
   7    9.998       9.186       8.292       7.274       6.194       5.300       4.299       3.071       1.618      4.7998E-03
   8    9.998       9.268       8.479       7.600       6.642       5.641       4.509       3.185       1.667      4.9458E-03
   9    9.998       9.323       8.598       7.786       6.870       5.836       4.644       3.265       1.704      5.0538E-03
  10    9.998       9.351       8.654       7.869       6.968       5.924       4.708       3.305       1.723      5.1092E-03
1
              HEAD IN LAYER   4 AT END OF TIME STEP  19 IN STRESS PERIOD    4
  ---------------------------------------------------------------------------

            1           2           3           4           5           6           7           8           9          10
 ........................................................................................................................
   1    9.998       9.284       8.520       7.678       6.748       5.721       4.552       3.202       1.671      4.9953E-03
   2    9.998       9.245       8.436       7.541       6.575       5.577       4.456       3.148       1.648      4.9246E-03
   3    9.998       9.174       8.268       7.241       6.157       5.265       4.269       3.050       1.606      4.8013E-03
   4    9.998       9.090       8.046       6.751       5.261       4.754       4.023       2.938       1.563      4.6710E-03
   5    9.998       9.042       7.884       6.196       3.329       4.176       3.845       2.877       1.542      4.6100E-03
   6    9.998       9.094       8.054       6.762       5.273       4.765       4.032       2.944       1.566      4.6813E-03
   7    9.998       9.185       8.288       7.268       6.188       5.293       4.293       3.066       1.615      4.8262E-03
   8    9.998       9.266       8.476       7.596       6.636       5.635       4.503       3.180       1.664      4.9734E-03
   9    9.998       9.322       8.595       7.782       6.865       5.831       4.639       3.260       1.700      5.0823E-03
  10    9.998       9.349       8.651       7.865       6.962       5.918       4.703       3.300       1.719      5.1382E-03

 HEAD WILL BE SAVED ON UNIT   51 AT END OF TIME STEP   19, STRESS PERIOD    4

 DRAWDOWN WILL BE SAVED ON UNIT   52 AT END OF TIME STEP   19, STRESS PERIOD    4
1
  VOLUMETRIC BUDGET FOR ENTIRE MODEL AT END OF TIME STEP   19, STRESS PERIOD   4
  ------------------------------------------------------------------------------

     CUMULATIVE VOLUMES      L**3       RATES FOR THIS TIME STEP      L**3/T
     ------------------                 ------------------------

           IN:                                      IN:
           ---                                      ---
             STORAGE =      467717.6875               STORAGE =         857.5996
       CONSTANT HEAD =           0.0000         CONSTANT HEAD =           0.0000
               WELLS =           0.0000                 WELLS =           0.0000
     HEAD DEP BOUNDS =       35926.5859       HEAD DEP BOUNDS =         469.6147

            TOTAL IN =      503644.2812              TOTAL IN =        1327.2142

          OUT:                                     OUT:
          ----                                     ----
             STORAGE =           0.0000               STORAGE =           0.0000
       CONSTANT HEAD =           0.0000         CONSTANT HEAD =           0.0000
               WELLS =       59500.0000                 WELLS =         500.0000
     HEAD DEP BOUNDS =      444146.0625       HEAD DEP BOUNDS =         827.2126

           TOTAL OUT =      503646.0625             TOTAL OUT =        1327.2126

            IN - OUT =          -1.7812              IN - OUT =       1.5869E-03

 PERCENT DISCREPANCY =          -0.00     PERCENT DISCREPANCY =           0.00






         TIME SUMMARY AT END OF TIME STEP   19 IN STRESS PERIOD    4
                    SECONDS     MINUTES      HOURS       DAYS        YEARS
                    -----------------------------------------------------------
   TIME STEP LENGTH  86400.      1440.0      24.000      1.0000     2.73785E-03
 STRESS PERIOD TIME 1.64160E+06  27360.      456.00      19.000     5.20192E-02
         TOTAL TIME 1.90080E+07 3.16800E+05  5280.0      220.00     0.60233    
1
 
 SOLVING FOR HEAD 

 OUTPUT CONTROL FOR STRESS PERIOD    4   TIME STEP   20
    SAVE HEAD FOR ALL LAYERS
    SAVE DRAWDOWN FOR ALL LAYERS
    SAVE BUDGET
    PRINT HEAD FOR ALL LAYERS
    PRINT BUDGET
 UBDSV1 SAVING "         STORAGE" ON UNIT  53 AT TIME STEP 20, STRESS PERIOD   4
 UBDSV2 SAVING "   CONSTANT HEAD" ON UNIT  53 AT TIME STEP 20, STRESS PERIOD   4
 UBDSV1 SAVING "FLOW RIGHT FACE " ON UNIT  53 AT TIME STEP 20, STRESS PERIOD   4
 UBDSV1 SAVING "FLOW FRONT FACE " ON UNIT  53 AT TIME STEP 20, STRESS PERIOD   4
 UBDSV1 SAVING "FLOW LOWER FACE " ON UNIT  53 AT TIME STEP 20, STRESS PERIOD   4
1
              HEAD IN LAYER   1 AT END OF TIME STEP  20 IN STRESS PERIOD    4
  ---------------------------------------------------------------------------

            1           2           3           4           5           6           7           8           9          10
 ........................................................................................................................
   1    9.998       9.290       8.532       7.694       6.767       5.741       4.571       3.219       1.684      2.3738E-03
   2    9.998       9.252       8.448       7.558       6.595       5.598       4.476       3.165       1.660      2.3378E-03
   3    9.998       9.181       8.282       7.259       6.178       5.285       4.289       3.067       1.619      2.2753E-03
   4    9.998       9.098       8.060       6.771       5.266       4.773       4.042       2.954       1.575      2.2092E-03
   5    9.998       9.050       7.899       6.206       2.354       4.175       3.863       2.893       1.554      2.1783E-03
   6    9.998       9.102       8.068       6.781       5.278       4.785       4.051       2.961       1.578      2.2143E-03
   7    9.998       9.192       8.301       7.286       6.208       5.314       4.312       3.083       1.627      2.2878E-03
   8    9.998       9.273       8.487       7.612       6.655       5.655       4.522       3.197       1.676      2.3625E-03
   9    9.998       9.328       8.605       7.796       6.882       5.849       4.657       3.276       1.713      2.4176E-03
  10    9.998       9.355       8.661       7.879       6.980       5.937       4.721       3.316       1.732      2.4462E-03
1
              HEAD IN LAYER   2 AT END OF TIME STEP  20 IN STRESS PERIOD    4
  ---------------------------------------------------------------------------

            1           2           3           4           5           6           7           8           9          10
 ........................................................................................................................
   1    9.998       9.285       8.522       7.681       6.752       5.726       4.557       3.207       1.676      4.6127E-03
   2    9.998       9.246       8.438       7.544       6.579       5.582       4.461       3.153       1.653      4.5470E-03
   3    9.998       9.175       8.271       7.245       6.162       5.269       4.274       3.055       1.611      4.4324E-03
   4    9.998       9.092       8.049       6.755       5.252       4.757       4.027       2.943       1.567      4.3113E-03
   5    9.998       9.044       7.887       6.190       2.784       4.164       3.849       2.881       1.547      4.2546E-03
   6    9.998       9.096       8.057       6.766       5.264       4.769       4.037       2.949       1.571      4.3209E-03
   7    9.998       9.186       8.291       7.272       6.192       5.298       4.298       3.071       1.620      4.4555E-03
   8    9.998       9.267       8.478       7.599       6.640       5.640       4.508       3.185       1.669      4.5922E-03
   9    9.998       9.323       8.596       7.784       6.868       5.835       4.643       3.265       1.705      4.6933E-03
  10    9.998       9.350       8.652       7.867       6.966       5.922       4.708       3.305       1.724      4.7452E-03
1
              HEAD IN LAYER   3 AT END OF TIME STEP  20 IN STRESS PERIOD    4
  ---------------------------------------------------------------------------

            1           2           3           4           5           6           7           8           9          10
 ........................................................................................................................
   1    9.998       9.281       8.515       7.672       6.740       5.713       4.545       3.197       1.669      4.9518E-03
   2    9.998       9.243       8.431       7.534       6.567       5.569       4.449       3.143       1.646      4.8813E-03
   3    9.998       9.171       8.263       7.234       6.149       5.256       4.262       3.045       1.604      4.7584E-03
   4    9.998       9.087       8.041       6.744       5.247       4.745       4.015       2.932       1.560      4.6287E-03
   5    9.998       9.040       7.879       6.185       3.142       4.161       3.837       2.871       1.540      4.5680E-03
   6    9.998       9.092       8.049       6.755       5.259       4.757       4.025       2.939       1.564      4.6391E-03
   7    9.998       9.182       8.284       7.262       6.180       5.285       4.286       3.061       1.613      4.7835E-03
   8    9.998       9.264       8.471       7.589       6.629       5.628       4.497       3.176       1.662      4.9303E-03
   9    9.998       9.319       8.590       7.775       6.858       5.823       4.632       3.256       1.699      5.0389E-03
  10    9.998       9.347       8.646       7.859       6.956       5.911       4.697       3.296       1.718      5.0947E-03
1
              HEAD IN LAYER   4 AT END OF TIME STEP  20 IN STRESS PERIOD    4
  ---------------------------------------------------------------------------

            1           2           3           4           5           6           7           8           9          10
 ........................................................................................................................
   1    9.998       9.279       8.512       7.667       6.734       5.707       4.539       3.192       1.666      4.9792E-03
   2    9.998       9.241       8.427       7.529       6.561       5.563       4.443       3.138       1.642      4.9082E-03
   3    9.998       9.169       8.260       7.229       6.143       5.250       4.256       3.040       1.601      4.7845E-03
   4    9.998       9.085       8.036       6.738       5.246       4.739       4.009       2.927       1.557      4.6539E-03
   5    9.998       9.037       7.874       6.184       3.314       4.161       3.832       2.866       1.537      4.5929E-03
   6    9.998       9.090       8.045       6.749       5.258       4.750       4.019       2.934       1.561      4.6644E-03
   7    9.998       9.180       8.280       7.257       6.174       5.279       4.280       3.056       1.609      4.8100E-03
   8    9.998       9.262       8.468       7.585       6.623       5.622       4.491       3.171       1.659      4.9579E-03
   9    9.998       9.318       8.587       7.771       6.852       5.818       4.627       3.251       1.695      5.0673E-03
  10    9.998       9.345       8.643       7.855       6.950       5.906       4.691       3.291       1.714      5.1236E-03

 HEAD WILL BE SAVED ON UNIT   51 AT END OF TIME STEP   20, STRESS PERIOD    4

 DRAWDOWN WILL BE SAVED ON UNIT   52 AT END OF TIME STEP   20, STRESS PERIOD    4
1
  VOLUMETRIC BUDGET FOR ENTIRE MODEL AT END OF TIME STEP   20, STRESS PERIOD   4
  ------------------------------------------------------------------------------

     CUMULATIVE VOLUMES      L**3       RATES FOR THIS TIME STEP      L**3/T
     ------------------                 ------------------------

           IN:                                      IN:
           ---                                      ---
             STORAGE =      468569.8750               STORAGE =         852.1939
       CONSTANT HEAD =           0.0000         CONSTANT HEAD =           0.0000
               WELLS =           0.0000                 WELLS =           0.0000
     HEAD DEP BOUNDS =       36398.8047       HEAD DEP BOUNDS =         472.2197

            TOTAL IN =      504968.6875              TOTAL IN =        1324.4136

          OUT:                                     OUT:
          ----                                     ----
             STORAGE =           0.0000               STORAGE =           0.0000
       CONSTANT HEAD =           0.0000         CONSTANT HEAD =           0.0000
               WELLS =       60000.0000                 WELLS =         500.0000
     HEAD DEP BOUNDS =      444970.5000       HEAD DEP BOUNDS =         824.4235

           TOTAL OUT =      504970.5000             TOTAL OUT =        1324.4236

            IN - OUT =          -1.8125              IN - OUT =      -1.0010E-02

 PERCENT DISCREPANCY =          -0.00     PERCENT DISCREPANCY =          -0.00






         TIME SUMMARY AT END OF TIME STEP   20 IN STRESS PERIOD    4
                    SECONDS     MINUTES      HOURS       DAYS        YEARS
                    -----------------------------------------------------------
   TIME STEP LENGTH  86400.      1440.0      24.000      1.0000     2.73785E-03
 STRESS PERIOD TIME 1.72800E+06  28800.      480.00      20.000     5.47570E-02
         TOTAL TIME 1.90944E+07 3.18240E+05  5304.0      221.00     0.60507    
1
 
 SOLVING FOR HEAD 

 OUTPUT CONTROL FOR STRESS PERIOD    4   TIME STEP   21
    SAVE HEAD FOR ALL LAYERS
    SAVE DRAWDOWN FOR ALL LAYERS
    SAVE BUDGET
    PRINT HEAD FOR ALL LAYERS
    PRINT BUDGET
 UBDSV1 SAVING "         STORAGE" ON UNIT  53 AT TIME STEP 21, STRESS PERIOD   4
 UBDSV2 SAVING "   CONSTANT HEAD" ON UNIT  53 AT TIME STEP 21, STRESS PERIOD   4
 UBDSV1 SAVING "FLOW RIGHT FACE " ON UNIT  53 AT TIME STEP 21, STRESS PERIOD   4
 UBDSV1 SAVING "FLOW FRONT FACE " ON UNIT  53 AT TIME STEP 21, STRESS PERIOD   4
 UBDSV1 SAVING "FLOW LOWER FACE " ON UNIT  53 AT TIME STEP 21, STRESS PERIOD   4
1
              HEAD IN LAYER   1 AT END OF TIME STEP  21 IN STRESS PERIOD    4
  ---------------------------------------------------------------------------

            1           2           3           4           5           6           7           8           9          10
 ........................................................................................................................
   1    9.998       9.286       8.523       7.683       6.753       5.727       4.558       3.209       1.679      2.3656E-03
   2    9.998       9.248       8.439       7.546       6.581       5.583       4.463       3.155       1.655      2.3295E-03
   3    9.998       9.177       8.273       7.247       6.164       5.271       4.275       3.057       1.613      2.2667E-03
   4    9.998       9.093       8.051       6.758       5.251       4.758       4.028       2.944       1.569      2.2007E-03
   5    9.998       9.046       7.890       6.193       2.338       4.160       3.849       2.883       1.548      2.1695E-03
   6    9.998       9.097       8.059       6.769       5.264       4.770       4.038       2.951       1.573      2.2058E-03
   7    9.998       9.187       8.293       7.274       6.194       5.299       4.299       3.073       1.621      2.2795E-03
   8    9.998       9.268       8.479       7.600       6.642       5.641       4.510       3.187       1.671      2.3544E-03
   9    9.998       9.324       8.598       7.786       6.870       5.837       4.645       3.267       1.708      2.4100E-03
  10    9.998       9.351       8.653       7.869       6.967       5.924       4.710       3.307       1.727      2.4386E-03
1
              HEAD IN LAYER   2 AT END OF TIME STEP  21 IN STRESS PERIOD    4
  ---------------------------------------------------------------------------

            1           2           3           4           5           6           7           8           9          10
 ........................................................................................................................
   1    9.998       9.280       8.514       7.670       6.738       5.712       4.544       3.197       1.671      4.5977E-03
   2    9.998       9.242       8.429       7.532       6.565       5.568       4.448       3.143       1.647      4.5318E-03
   3    9.998       9.171       8.262       7.233       6.147       5.254       4.261       3.045       1.606      4.4168E-03
   4    9.998       9.087       8.040       6.742       5.237       4.742       4.013       2.932       1.562      4.2954E-03
   5    9.998       9.039       7.878       6.177       2.768       4.149       3.835       2.871       1.541      4.2386E-03
   6    9.998       9.091       8.048       6.754       5.250       4.754       4.023       2.939       1.565      4.3052E-03
   7    9.998       9.181       8.282       7.260       6.178       5.284       4.285       3.062       1.614      4.4404E-03
   8    9.998       9.263       8.470       7.587       6.627       5.626       4.496       3.176       1.664      4.5777E-03
   9    9.998       9.319       8.589       7.774       6.856       5.822       4.632       3.256       1.700      4.6794E-03
  10    9.998       9.346       8.645       7.857       6.954       5.910       4.696       3.296       1.719      4.7317E-03
1
              HEAD IN LAYER   3 AT END OF TIME STEP  21 IN STRESS PERIOD    4
  ---------------------------------------------------------------------------

            1           2           3           4           5           6           7           8           9          10
 ........................................................................................................................
   1    9.998       9.277       8.507       7.660       6.727       5.699       4.532       3.187       1.664      4.9358E-03
   2    9.998       9.238       8.422       7.522       6.554       5.555       4.437       3.133       1.640      4.8651E-03
   3    9.998       9.167       8.255       7.222       6.135       5.242       4.249       3.035       1.599      4.7418E-03
   4    9.998       9.083       8.032       6.731       5.232       4.730       4.001       2.922       1.555      4.6118E-03
   5    9.998       9.035       7.870       6.172       3.127       4.146       3.824       2.861       1.534      4.5510E-03
   6    9.998       9.087       8.040       6.743       5.245       4.742       4.011       2.929       1.558      4.6224E-03
   7    9.998       9.178       8.275       7.250       6.166       5.271       4.273       3.052       1.607      4.7674E-03
   8    9.998       9.260       8.463       7.578       6.616       5.615       4.485       3.166       1.657      4.9149E-03
   9    9.998       9.315       8.582       7.765       6.845       5.811       4.621       3.247       1.694      5.0241E-03
  10    9.998       9.343       8.639       7.849       6.944       5.899       4.686       3.287       1.713      5.0803E-03
1
              HEAD IN LAYER   4 AT END OF TIME STEP  21 IN STRESS PERIOD    4
  ---------------------------------------------------------------------------

            1           2           3           4           5           6           7           8           9          10
 ........................................................................................................................
   1    9.998       9.275       8.503       7.655       6.721       5.693       4.526       3.182       1.661      4.9632E-03
   2    9.998       9.236       8.419       7.517       6.548       5.549       4.431       3.128       1.637      4.8920E-03
   3    9.998       9.165       8.251       7.217       6.129       5.235       4.243       3.030       1.595      4.7679E-03
   4    9.998       9.080       8.028       6.726       5.231       4.724       3.995       2.917       1.551      4.6369E-03
   5    9.998       9.033       7.865       6.171       3.298       4.146       3.818       2.856       1.531      4.5758E-03
   6    9.998       9.085       8.036       6.737       5.244       4.736       4.005       2.924       1.555      4.6477E-03
   7    9.998       9.176       8.271       7.245       6.160       5.265       4.267       3.047       1.604      4.7938E-03
   8    9.998       9.258       8.460       7.573       6.611       5.609       4.479       3.162       1.654      4.9424E-03
   9    9.998       9.314       8.579       7.761       6.840       5.805       4.615       3.242       1.691      5.0525E-03
  10    9.998       9.341       8.636       7.844       6.938       5.893       4.680       3.282       1.709      5.1091E-03

 HEAD WILL BE SAVED ON UNIT   51 AT END OF TIME STEP   21, STRESS PERIOD    4

 DRAWDOWN WILL BE SAVED ON UNIT   52 AT END OF TIME STEP   21, STRESS PERIOD    4
1
  VOLUMETRIC BUDGET FOR ENTIRE MODEL AT END OF TIME STEP   21, STRESS PERIOD   4
  ------------------------------------------------------------------------------

     CUMULATIVE VOLUMES      L**3       RATES FOR THIS TIME STEP      L**3/T
     ------------------                 ------------------------

           IN:                                      IN:
           ---                                      ---
             STORAGE =      469416.7188               STORAGE =         846.8329
       CONSTANT HEAD =           0.0000         CONSTANT HEAD =           0.0000
               WELLS =           0.0000                 WELLS =           0.0000
     HEAD DEP BOUNDS =       36873.6406       HEAD DEP BOUNDS =         474.8371

            TOTAL IN =      506290.3750              TOTAL IN =        1321.6700

          OUT:                                     OUT:
          ----                                     ----
             STORAGE =           0.0000               STORAGE =           0.0000
       CONSTANT HEAD =           0.0000         CONSTANT HEAD =           0.0000
               WELLS =       60500.0000                 WELLS =         500.0000
     HEAD DEP BOUNDS =      445792.1562       HEAD DEP BOUNDS =         821.6555

           TOTAL OUT =      506292.1562             TOTAL OUT =        1321.6555

            IN - OUT =          -1.7812              IN - OUT =       1.4526E-02

 PERCENT DISCREPANCY =          -0.00     PERCENT DISCREPANCY =           0.00






         TIME SUMMARY AT END OF TIME STEP   21 IN STRESS PERIOD    4
                    SECONDS     MINUTES      HOURS       DAYS        YEARS
                    -----------------------------------------------------------
   TIME STEP LENGTH  86400.      1440.0      24.000      1.0000     2.73785E-03
 STRESS PERIOD TIME 1.81440E+06  30240.      504.00      21.000     5.74949E-02
         TOTAL TIME 1.91808E+07 3.19680E+05  5328.0      222.00     0.60780    
1
 
 SOLVING FOR HEAD 

 OUTPUT CONTROL FOR STRESS PERIOD    4   TIME STEP   22
    SAVE HEAD FOR ALL LAYERS
    SAVE DRAWDOWN FOR ALL LAYERS
    SAVE BUDGET
    PRINT HEAD FOR ALL LAYERS
    PRINT BUDGET
 UBDSV1 SAVING "         STORAGE" ON UNIT  53 AT TIME STEP 22, STRESS PERIOD   4
 UBDSV2 SAVING "   CONSTANT HEAD" ON UNIT  53 AT TIME STEP 22, STRESS PERIOD   4
 UBDSV1 SAVING "FLOW RIGHT FACE " ON UNIT  53 AT TIME STEP 22, STRESS PERIOD   4
 UBDSV1 SAVING "FLOW FRONT FACE " ON UNIT  53 AT TIME STEP 22, STRESS PERIOD   4
 UBDSV1 SAVING "FLOW LOWER FACE " ON UNIT  53 AT TIME STEP 22, STRESS PERIOD   4
1
              HEAD IN LAYER   1 AT END OF TIME STEP  22 IN STRESS PERIOD    4
  ---------------------------------------------------------------------------

            1           2           3           4           5           6           7           8           9          10
 ........................................................................................................................
   1    9.998       9.281       8.515       7.671       6.740       5.713       4.546       3.199       1.673      2.3575E-03
   2    9.998       9.243       8.431       7.534       6.567       5.569       4.450       3.145       1.649      2.3213E-03
   3    9.998       9.172       8.264       7.235       6.149       5.256       4.262       3.046       1.607      2.2582E-03
   4    9.998       9.088       8.042       6.745       5.236       4.743       4.014       2.933       1.563      2.1920E-03
   5    9.998       9.041       7.881       6.181       2.323       4.145       3.836       2.872       1.543      2.1610E-03
   6    9.998       9.093       8.050       6.757       5.249       4.755       4.024       2.940       1.567      2.1973E-03
   7    9.998       9.183       8.284       7.262       6.180       5.285       4.286       3.063       1.616      2.2711E-03
   8    9.998       9.264       8.471       7.589       6.629       5.628       4.498       3.178       1.666      2.3465E-03
   9    9.998       9.320       8.590       7.775       6.857       5.824       4.634       3.258       1.703      2.4024E-03
  10    9.998       9.347       8.646       7.859       6.955       5.912       4.698       3.298       1.722      2.4311E-03
1
              HEAD IN LAYER   2 AT END OF TIME STEP  22 IN STRESS PERIOD    4
  ---------------------------------------------------------------------------

            1           2           3           4           5           6           7           8           9          10
 ........................................................................................................................
   1    9.998       9.276       8.505       7.658       6.725       5.698       4.531       3.188       1.666      4.5828E-03
   2    9.998       9.238       8.421       7.520       6.552       5.553       4.436       3.133       1.642      4.5166E-03
   3    9.998       9.166       8.253       7.221       6.133       5.240       4.248       3.035       1.600      4.4013E-03
   4    9.998       9.082       8.031       6.730       5.222       4.727       4.000       2.922       1.556      4.2796E-03
   5    9.998       9.035       7.869       6.165       2.753       4.133       3.822       2.861       1.535      4.2228E-03
   6    9.998       9.087       8.039       6.741       5.235       4.739       4.010       2.929       1.559      4.2896E-03
   7    9.998       9.177       8.274       7.248       6.164       5.269       4.272       3.052       1.609      4.4253E-03
   8    9.998       9.259       8.462       7.576       6.614       5.613       4.484       3.167       1.659      4.5633E-03
   9    9.998       9.315       8.581       7.763       6.843       5.809       4.620       3.247       1.695      4.6656E-03
  10    9.998       9.342       8.637       7.847       6.942       5.897       4.685       3.288       1.714      4.7182E-03
1
              HEAD IN LAYER   3 AT END OF TIME STEP  22 IN STRESS PERIOD    4
  ---------------------------------------------------------------------------

            1           2           3           4           5           6           7           8           9          10
 ........................................................................................................................
   1    9.998       9.272       8.498       7.649       6.713       5.686       4.520       3.178       1.659      4.9200E-03
   2    9.998       9.234       8.414       7.511       6.540       5.541       4.424       3.123       1.635      4.8490E-03
   3    9.998       9.162       8.246       7.210       6.121       5.227       4.236       3.025       1.593      4.7254E-03
   4    9.998       9.078       8.023       6.719       5.217       4.715       3.988       2.912       1.549      4.5950E-03
   5    9.998       9.030       7.861       6.159       3.111       4.130       3.810       2.851       1.529      4.5342E-03
   6    9.998       9.082       8.031       6.730       5.230       4.727       3.998       2.919       1.553      4.6058E-03
   7    9.998       9.173       8.267       7.238       6.152       5.257       4.260       3.042       1.602      4.7514E-03
   8    9.998       9.255       8.455       7.567       6.603       5.601       4.473       3.157       1.652      4.8996E-03
   9    9.998       9.312       8.575       7.754       6.833       5.798       4.609       3.238       1.689      5.0094E-03
  10    9.998       9.339       8.631       7.838       6.932       5.886       4.674       3.278       1.708      5.0659E-03
1
              HEAD IN LAYER   4 AT END OF TIME STEP  22 IN STRESS PERIOD    4
  ---------------------------------------------------------------------------

            1           2           3           4           5           6           7           8           9          10
 ........................................................................................................................
   1    9.998       9.270       8.495       7.644       6.708       5.680       4.514       3.173       1.655      4.9473E-03
   2    9.998       9.232       8.410       7.506       6.534       5.535       4.418       3.118       1.631      4.8758E-03
   3    9.998       9.160       8.242       7.205       6.115       5.221       4.230       3.020       1.590      4.7513E-03
   4    9.998       9.076       8.019       6.713       5.217       4.709       3.982       2.907       1.546      4.6201E-03
   5    9.998       9.028       7.856       6.158       3.282       4.131       3.804       2.846       1.525      4.5589E-03
   6    9.998       9.080       8.027       6.725       5.230       4.721       3.992       2.914       1.549      4.6310E-03
   7    9.998       9.171       8.263       7.233       6.146       5.251       4.255       3.037       1.599      4.7777E-03
   8    9.998       9.254       8.452       7.562       6.598       5.595       4.467       3.152       1.649      4.9270E-03
   9    9.998       9.310       8.572       7.750       6.828       5.792       4.604       3.233       1.686      5.0377E-03
  10    9.998       9.337       8.628       7.834       6.927       5.881       4.669       3.274       1.705      5.0947E-03

 HEAD WILL BE SAVED ON UNIT   51 AT END OF TIME STEP   22, STRESS PERIOD    4

 DRAWDOWN WILL BE SAVED ON UNIT   52 AT END OF TIME STEP   22, STRESS PERIOD    4
1
  VOLUMETRIC BUDGET FOR ENTIRE MODEL AT END OF TIME STEP   22, STRESS PERIOD   4
  ------------------------------------------------------------------------------

     CUMULATIVE VOLUMES      L**3       RATES FOR THIS TIME STEP      L**3/T
     ------------------                 ------------------------

           IN:                                      IN:
           ---                                      ---
             STORAGE =      470258.2188               STORAGE =         841.5005
       CONSTANT HEAD =           0.0000         CONSTANT HEAD =           0.0000
               WELLS =           0.0000                 WELLS =           0.0000
     HEAD DEP BOUNDS =       37351.0352       HEAD DEP BOUNDS =         477.3947

            TOTAL IN =      507609.2500              TOTAL IN =        1318.8953

          OUT:                                     OUT:
          ----                                     ----
             STORAGE =           0.0000               STORAGE =           0.0000
       CONSTANT HEAD =           0.0000         CONSTANT HEAD =           0.0000
               WELLS =       61000.0000                 WELLS =         500.0000
     HEAD DEP BOUNDS =      446611.0625       HEAD DEP BOUNDS =         818.9044

           TOTAL OUT =      507611.0625             TOTAL OUT =        1318.9043

            IN - OUT =          -1.8125              IN - OUT =      -9.0332E-03

 PERCENT DISCREPANCY =          -0.00     PERCENT DISCREPANCY =          -0.00






         TIME SUMMARY AT END OF TIME STEP   22 IN STRESS PERIOD    4
                    SECONDS     MINUTES      HOURS       DAYS        YEARS
                    -----------------------------------------------------------
   TIME STEP LENGTH  86400.      1440.0      24.000      1.0000     2.73785E-03
 STRESS PERIOD TIME 1.90080E+06  31680.      528.00      22.000     6.02327E-02
         TOTAL TIME 1.92672E+07 3.21120E+05  5352.0      223.00     0.61054    
1
 
 SOLVING FOR HEAD 

 OUTPUT CONTROL FOR STRESS PERIOD    4   TIME STEP   23
    SAVE HEAD FOR ALL LAYERS
    SAVE DRAWDOWN FOR ALL LAYERS
    SAVE BUDGET
    PRINT HEAD FOR ALL LAYERS
    PRINT BUDGET
 UBDSV1 SAVING "         STORAGE" ON UNIT  53 AT TIME STEP 23, STRESS PERIOD   4
 UBDSV2 SAVING "   CONSTANT HEAD" ON UNIT  53 AT TIME STEP 23, STRESS PERIOD   4
 UBDSV1 SAVING "FLOW RIGHT FACE " ON UNIT  53 AT TIME STEP 23, STRESS PERIOD   4
 UBDSV1 SAVING "FLOW FRONT FACE " ON UNIT  53 AT TIME STEP 23, STRESS PERIOD   4
 UBDSV1 SAVING "FLOW LOWER FACE " ON UNIT  53 AT TIME STEP 23, STRESS PERIOD   4
1
              HEAD IN LAYER   1 AT END OF TIME STEP  23 IN STRESS PERIOD    4
  ---------------------------------------------------------------------------

            1           2           3           4           5           6           7           8           9          10
 ........................................................................................................................
   1    9.998       9.277       8.507       7.660       6.726       5.700       4.533       3.189       1.668      2.3492E-03
   2    9.998       9.239       8.422       7.522       6.553       5.555       4.437       3.135       1.644      2.3129E-03
   3    9.998       9.168       8.255       7.223       6.135       5.241       4.249       3.036       1.602      2.2497E-03
   4    9.998       9.084       8.033       6.733       5.222       4.728       4.001       2.923       1.558      2.1832E-03
   5    9.998       9.036       7.872       6.168       2.307       4.129       3.822       2.862       1.537      2.1524E-03
   6    9.998       9.088       8.041       6.744       5.235       4.740       4.011       2.930       1.561      2.1888E-03
   7    9.998       9.178       8.276       7.251       6.166       5.271       4.273       3.053       1.611      2.2628E-03
   8    9.998       9.260       8.463       7.578       6.616       5.615       4.486       3.168       1.661      2.3385E-03
   9    9.998       9.316       8.582       7.765       6.845       5.811       4.622       3.249       1.698      2.3948E-03
  10    9.998       9.343       8.639       7.848       6.943       5.899       4.687       3.290       1.717      2.4237E-03
1
              HEAD IN LAYER   2 AT END OF TIME STEP  23 IN STRESS PERIOD    4
  ---------------------------------------------------------------------------

            1           2           3           4           5           6           7           8           9          10
 ........................................................................................................................
   1    9.998       9.272       8.497       7.647       6.711       5.684       4.519       3.178       1.660      4.5680E-03
   2    9.998       9.233       8.412       7.509       6.538       5.539       4.423       3.124       1.636      4.5016E-03
   3    9.998       9.162       8.245       7.209       6.119       5.225       4.235       3.025       1.594      4.3859E-03
   4    9.998       9.078       8.022       6.718       5.208       4.712       3.987       2.912       1.550      4.2639E-03
   5    9.998       9.030       7.860       6.152       2.737       4.118       3.808       2.850       1.530      4.2071E-03
   6    9.998       9.082       8.030       6.729       5.221       4.724       3.997       2.919       1.554      4.2741E-03
   7    9.998       9.173       8.265       7.237       6.151       5.255       4.259       3.042       1.603      4.4103E-03
   8    9.998       9.255       8.454       7.565       6.601       5.600       4.472       3.157       1.653      4.5490E-03
   9    9.998       9.311       8.573       7.753       6.831       5.797       4.609       3.238       1.691      4.6518E-03
  10    9.998       9.338       8.630       7.837       6.930       5.885       4.674       3.279       1.710      4.7048E-03
1
              HEAD IN LAYER   3 AT END OF TIME STEP  23 IN STRESS PERIOD    4
  ---------------------------------------------------------------------------

            1           2           3           4           5           6           7           8           9          10
 ........................................................................................................................
   1    9.998       9.268       8.490       7.637       6.700       5.672       4.507       3.168       1.653      4.9042E-03
   2    9.998       9.229       8.405       7.499       6.526       5.527       4.411       3.114       1.629      4.8330E-03
   3    9.998       9.158       8.237       7.198       6.107       5.213       4.223       3.015       1.588      4.7090E-03
   4    9.998       9.073       8.014       6.706       5.203       4.700       3.975       2.902       1.543      4.5783E-03
   5    9.998       9.026       7.852       6.147       3.096       4.115       3.797       2.840       1.523      4.5174E-03
   6    9.998       9.078       8.022       6.718       5.216       4.712       3.985       2.909       1.547      4.5893E-03
   7    9.998       9.169       8.258       7.227       6.139       5.243       4.248       3.032       1.597      4.7355E-03
   8    9.998       9.251       8.447       7.556       6.590       5.588       4.461       3.148       1.647      4.8844E-03
   9    9.998       9.308       8.567       7.744       6.821       5.785       4.598       3.229       1.684      4.9948E-03
  10    9.998       9.335       8.624       7.828       6.920       5.874       4.663       3.270       1.703      5.0516E-03
1
              HEAD IN LAYER   4 AT END OF TIME STEP  23 IN STRESS PERIOD    4
  ---------------------------------------------------------------------------

            1           2           3           4           5           6           7           8           9          10
 ........................................................................................................................
   1    9.998       9.266       8.487       7.632       6.694       5.666       4.501       3.163       1.650      4.9315E-03
   2    9.998       9.227       8.402       7.494       6.520       5.521       4.405       3.109       1.626      4.8598E-03
   3    9.998       9.156       8.233       7.193       6.101       5.206       4.217       3.010       1.584      4.7349E-03
   4    9.998       9.071       8.010       6.701       5.202       4.694       3.969       2.897       1.540      4.6033E-03
   5    9.998       9.023       7.848       6.146       3.267       4.116       3.791       2.835       1.520      4.5421E-03
   6    9.998       9.076       8.018       6.713       5.215       4.706       3.979       2.904       1.544      4.6145E-03
   7    9.998       9.167       8.255       7.222       6.133       5.237       4.242       3.027       1.593      4.7618E-03
   8    9.998       9.249       8.444       7.552       6.585       5.582       4.455       3.143       1.643      4.9118E-03
   9    9.998       9.306       8.564       7.740       6.816       5.780       4.592       3.224       1.681      5.0231E-03
  10    9.998       9.334       8.621       7.824       6.915       5.869       4.658       3.265       1.700      5.0804E-03

 HEAD WILL BE SAVED ON UNIT   51 AT END OF TIME STEP   23, STRESS PERIOD    4

 DRAWDOWN WILL BE SAVED ON UNIT   52 AT END OF TIME STEP   23, STRESS PERIOD    4
1
  VOLUMETRIC BUDGET FOR ENTIRE MODEL AT END OF TIME STEP   23, STRESS PERIOD   4
  ------------------------------------------------------------------------------

     CUMULATIVE VOLUMES      L**3       RATES FOR THIS TIME STEP      L**3/T
     ------------------                 ------------------------

           IN:                                      IN:
           ---                                      ---
             STORAGE =      471094.4062               STORAGE =         836.1974
       CONSTANT HEAD =           0.0000         CONSTANT HEAD =           0.0000
               WELLS =           0.0000                 WELLS =           0.0000
     HEAD DEP BOUNDS =       37831.0039       HEAD DEP BOUNDS =         479.9669

            TOTAL IN =      508925.4062              TOTAL IN =        1316.1644

          OUT:                                     OUT:
          ----                                     ----
             STORAGE =           0.0000               STORAGE =           0.0000
       CONSTANT HEAD =           0.0000         CONSTANT HEAD =           0.0000
               WELLS =       61500.0000                 WELLS =         500.0000
     HEAD DEP BOUNDS =      447427.2188       HEAD DEP BOUNDS =         816.1669

           TOTAL OUT =      508927.2188             TOTAL OUT =        1316.1669

            IN - OUT =          -1.8125              IN - OUT =      -2.4414E-03

 PERCENT DISCREPANCY =          -0.00     PERCENT DISCREPANCY =          -0.00






         TIME SUMMARY AT END OF TIME STEP   23 IN STRESS PERIOD    4
                    SECONDS     MINUTES      HOURS       DAYS        YEARS
                    -----------------------------------------------------------
   TIME STEP LENGTH  86400.      1440.0      24.000      1.0000     2.73785E-03
 STRESS PERIOD TIME 1.98720E+06  33120.      552.00      23.000     6.29706E-02
         TOTAL TIME 1.93536E+07 3.22560E+05  5376.0      224.00     0.61328    
1
 
 SOLVING FOR HEAD 

 OUTPUT CONTROL FOR STRESS PERIOD    4   TIME STEP   24
    SAVE HEAD FOR ALL LAYERS
    SAVE DRAWDOWN FOR ALL LAYERS
    SAVE BUDGET
    PRINT HEAD FOR ALL LAYERS
    PRINT BUDGET
 UBDSV1 SAVING "         STORAGE" ON UNIT  53 AT TIME STEP 24, STRESS PERIOD   4
 UBDSV2 SAVING "   CONSTANT HEAD" ON UNIT  53 AT TIME STEP 24, STRESS PERIOD   4
 UBDSV1 SAVING "FLOW RIGHT FACE " ON UNIT  53 AT TIME STEP 24, STRESS PERIOD   4
 UBDSV1 SAVING "FLOW FRONT FACE " ON UNIT  53 AT TIME STEP 24, STRESS PERIOD   4
 UBDSV1 SAVING "FLOW LOWER FACE " ON UNIT  53 AT TIME STEP 24, STRESS PERIOD   4
1
              HEAD IN LAYER   1 AT END OF TIME STEP  24 IN STRESS PERIOD    4
  ---------------------------------------------------------------------------

            1           2           3           4           5           6           7           8           9          10
 ........................................................................................................................
   1    9.998       9.273       8.498       7.648       6.713       5.686       4.521       3.180       1.662      2.3410E-03
   2    9.998       9.234       8.414       7.511       6.540       5.541       4.424       3.125       1.638      2.3046E-03
   3    9.998       9.163       8.246       7.211       6.121       5.227       4.236       3.026       1.596      2.2414E-03
   4    9.998       9.079       8.024       6.720       5.207       4.713       3.987       2.913       1.552      2.1747E-03
   5    9.998       9.032       7.863       6.155       2.291       4.114       3.809       2.851       1.531      2.1438E-03
   6    9.998       9.084       8.033       6.732       5.220       4.725       3.998       2.920       1.556      2.1803E-03
   7    9.998       9.174       8.267       7.239       6.153       5.257       4.261       3.044       1.605      2.2547E-03
   8    9.998       9.256       8.455       7.567       6.603       5.601       4.473       3.159       1.655      2.3308E-03
   9    9.998       9.312       8.575       7.754       6.833       5.798       4.610       3.240       1.693      2.3872E-03
  10    9.998       9.339       8.631       7.838       6.932       5.887       4.676       3.281       1.712      2.4162E-03
1
              HEAD IN LAYER   2 AT END OF TIME STEP  24 IN STRESS PERIOD    4
  ---------------------------------------------------------------------------

            1           2           3           4           5           6           7           8           9          10
 ........................................................................................................................
   1    9.998       9.267       8.489       7.635       6.698       5.670       4.506       3.168       1.655      4.5533E-03
   2    9.998       9.229       8.404       7.497       6.524       5.525       4.410       3.114       1.631      4.4867E-03
   3    9.998       9.157       8.236       7.197       6.105       5.211       4.222       3.015       1.589      4.3706E-03
   4    9.998       9.073       8.013       6.705       5.193       4.697       3.973       2.901       1.545      4.2484E-03
   5    9.998       9.025       7.851       6.140       2.721       4.103       3.795       2.840       1.524      4.1915E-03
   6    9.998       9.078       8.022       6.717       5.206       4.710       3.984       2.909       1.548      4.2587E-03
   7    9.998       9.168       8.257       7.225       6.137       5.241       4.247       3.032       1.598      4.3955E-03
   8    9.998       9.251       8.446       7.554       6.589       5.586       4.460       3.148       1.648      4.5348E-03
   9    9.998       9.307       8.566       7.742       6.819       5.784       4.597       3.230       1.686      4.6382E-03
  10    9.998       9.335       8.623       7.826       6.918       5.873       4.662       3.270       1.705      4.6914E-03
1
              HEAD IN LAYER   3 AT END OF TIME STEP  24 IN STRESS PERIOD    4
  ---------------------------------------------------------------------------

            1           2           3           4           5           6           7           8           9          10
 ........................................................................................................................
   1    9.998       9.264       8.482       7.626       6.687       5.658       4.495       3.159       1.648      4.8886E-03
   2    9.998       9.225       8.397       7.487       6.513       5.513       4.398       3.104       1.624      4.8171E-03
   3    9.998       9.153       8.229       7.186       6.093       5.198       4.210       3.005       1.582      4.6927E-03
   4    9.998       9.069       8.005       6.694       5.188       4.685       3.961       2.891       1.538      4.5617E-03
   5    9.998       9.021       7.843       6.134       3.080       4.100       3.783       2.830       1.517      4.5008E-03
   6    9.998       9.073       8.014       6.706       5.202       4.698       3.972       2.899       1.542      4.5730E-03
   7    9.998       9.165       8.250       7.215       6.125       5.229       4.235       3.023       1.591      4.7197E-03
   8    9.998       9.247       8.439       7.545       6.578       5.575       4.449       3.139       1.642      4.8692E-03
   9    9.998       9.304       8.560       7.734       6.809       5.773       4.586       3.220       1.679      4.9802E-03
  10    9.998       9.331       8.617       7.818       6.908       5.862       4.652       3.261       1.698      5.0374E-03
1
              HEAD IN LAYER   4 AT END OF TIME STEP  24 IN STRESS PERIOD    4
  ---------------------------------------------------------------------------

            1           2           3           4           5           6           7           8           9          10
 ........................................................................................................................
   1    9.998       9.262       8.479       7.621       6.681       5.652       4.489       3.154       1.645      4.9158E-03
   2    9.998       9.223       8.393       7.483       6.507       5.507       4.393       3.099       1.621      4.8438E-03
   3    9.998       9.151       8.225       7.181       6.087       5.192       4.204       3.000       1.579      4.7186E-03
   4    9.998       9.067       8.001       6.689       5.188       4.679       3.956       2.887       1.535      4.5867E-03
   5    9.998       9.019       7.839       6.133       3.252       4.101       3.778       2.825       1.514      4.5255E-03
   6    9.998       9.071       8.010       6.701       5.201       4.692       3.966       2.894       1.538      4.5982E-03
   7    9.998       9.163       8.246       7.210       6.119       5.223       4.229       3.018       1.588      4.7459E-03
   8    9.998       9.245       8.436       7.541       6.572       5.569       4.443       3.134       1.638      4.8966E-03
   9    9.998       9.302       8.557       7.729       6.803       5.767       4.581       3.216       1.676      5.0085E-03
  10    9.998       9.330       8.614       7.814       6.903       5.857       4.647       3.256       1.695      5.0662E-03

 HEAD WILL BE SAVED ON UNIT   51 AT END OF TIME STEP   24, STRESS PERIOD    4

 DRAWDOWN WILL BE SAVED ON UNIT   52 AT END OF TIME STEP   24, STRESS PERIOD    4
1
  VOLUMETRIC BUDGET FOR ENTIRE MODEL AT END OF TIME STEP   24, STRESS PERIOD   4
  ------------------------------------------------------------------------------

     CUMULATIVE VOLUMES      L**3       RATES FOR THIS TIME STEP      L**3/T
     ------------------                 ------------------------

           IN:                                      IN:
           ---                                      ---
             STORAGE =      471925.3438               STORAGE =         830.9261
       CONSTANT HEAD =           0.0000         CONSTANT HEAD =           0.0000
               WELLS =           0.0000                 WELLS =           0.0000
     HEAD DEP BOUNDS =       38313.5195       HEAD DEP BOUNDS =         482.5170

            TOTAL IN =      510238.8750              TOTAL IN =        1313.4431

          OUT:                                     OUT:
          ----                                     ----
             STORAGE =           0.0000               STORAGE =           0.0000
       CONSTANT HEAD =           0.0000         CONSTANT HEAD =           0.0000
               WELLS =       62000.0000                 WELLS =         500.0000
     HEAD DEP BOUNDS =      448240.6562       HEAD DEP BOUNDS =         813.4510

           TOTAL OUT =      510240.6562             TOTAL OUT =        1313.4509

            IN - OUT =          -1.7812              IN - OUT =      -7.8125E-03

 PERCENT DISCREPANCY =          -0.00     PERCENT DISCREPANCY =          -0.00






         TIME SUMMARY AT END OF TIME STEP   24 IN STRESS PERIOD    4
                    SECONDS     MINUTES      HOURS       DAYS        YEARS
                    -----------------------------------------------------------
   TIME STEP LENGTH  86400.      1440.0      24.000      1.0000     2.73785E-03
 STRESS PERIOD TIME 2.07360E+06  34560.      576.00      24.000     6.57084E-02
         TOTAL TIME 1.94400E+07 3.24000E+05  5400.0      225.00     0.61602    
1
 
 SOLVING FOR HEAD 

 OUTPUT CONTROL FOR STRESS PERIOD    4   TIME STEP   25
    SAVE HEAD FOR ALL LAYERS
    SAVE DRAWDOWN FOR ALL LAYERS
    SAVE BUDGET
    PRINT HEAD FOR ALL LAYERS
    PRINT BUDGET
 UBDSV1 SAVING "         STORAGE" ON UNIT  53 AT TIME STEP 25, STRESS PERIOD   4
 UBDSV2 SAVING "   CONSTANT HEAD" ON UNIT  53 AT TIME STEP 25, STRESS PERIOD   4
 UBDSV1 SAVING "FLOW RIGHT FACE " ON UNIT  53 AT TIME STEP 25, STRESS PERIOD   4
 UBDSV1 SAVING "FLOW FRONT FACE " ON UNIT  53 AT TIME STEP 25, STRESS PERIOD   4
 UBDSV1 SAVING "FLOW LOWER FACE " ON UNIT  53 AT TIME STEP 25, STRESS PERIOD   4
1
              HEAD IN LAYER   1 AT END OF TIME STEP  25 IN STRESS PERIOD    4
  ---------------------------------------------------------------------------

            1           2           3           4           5           6           7           8           9          10
 ........................................................................................................................
   1    9.998       9.268       8.490       7.637       6.700       5.672       4.508       3.170       1.657      2.3330E-03
   2    9.998       9.230       8.405       7.499       6.526       5.527       4.412       3.116       1.633      2.2965E-03
   3    9.998       9.158       8.238       7.199       6.107       5.212       4.223       3.016       1.591      2.2330E-03
   4    9.998       9.074       8.015       6.708       5.193       4.698       3.974       2.903       1.546      2.1663E-03
   5    9.998       9.027       7.854       6.143       2.276       4.099       3.795       2.841       1.526      2.1353E-03
   6    9.998       9.079       8.024       6.720       5.206       4.711       3.984       2.910       1.550      2.1719E-03
   7    9.998       9.170       8.259       7.227       6.139       5.243       4.248       3.034       1.600      2.2467E-03
   8    9.998       9.252       8.447       7.556       6.590       5.588       4.461       3.150       1.650      2.3230E-03
   9    9.998       9.308       8.567       7.744       6.821       5.786       4.599       3.231       1.688      2.3797E-03
  10    9.998       9.335       8.624       7.828       6.920       5.875       4.664       3.272       1.707      2.4091E-03
1
              HEAD IN LAYER   2 AT END OF TIME STEP  25 IN STRESS PERIOD    4
  ---------------------------------------------------------------------------

            1           2           3           4           5           6           7           8           9          10
 ........................................................................................................................
   1    9.998       9.263       8.480       7.624       6.685       5.657       4.494       3.159       1.650      4.5387E-03
   2    9.998       9.224       8.395       7.486       6.511       5.512       4.398       3.104       1.625      4.4718E-03
   3    9.998       9.153       8.227       7.185       6.091       5.197       4.209       3.005       1.583      4.3555E-03
   4    9.998       9.068       8.004       6.693       5.179       4.683       3.960       2.891       1.539      4.2329E-03
   5    9.998       9.021       7.842       6.127       2.706       4.088       3.781       2.830       1.518      4.1760E-03
   6    9.998       9.073       8.013       6.705       5.192       4.695       3.971       2.899       1.543      4.2435E-03
   7    9.998       9.164       8.249       7.214       6.124       5.228       4.234       3.023       1.593      4.3808E-03
   8    9.998       9.247       8.438       7.544       6.576       5.573       4.448       3.139       1.643      4.5207E-03
   9    9.998       9.303       8.558       7.732       6.807       5.771       4.586       3.221       1.681      4.6246E-03
  10    9.998       9.331       8.615       7.816       6.906       5.861       4.651       3.262       1.700      4.6782E-03
1
              HEAD IN LAYER   3 AT END OF TIME STEP  25 IN STRESS PERIOD    4
  ---------------------------------------------------------------------------

            1           2           3           4           5           6           7           8           9          10
 ........................................................................................................................
   1    9.998       9.259       8.474       7.614       6.674       5.645       4.482       3.149       1.643      4.8730E-03
   2    9.998       9.221       8.388       7.476       6.499       5.499       4.386       3.094       1.619      4.8013E-03
   3    9.998       9.149       8.220       7.174       6.079       5.184       4.197       2.995       1.577      4.6766E-03
   4    9.998       9.064       7.996       6.682       5.174       4.670       3.948       2.881       1.532      4.5453E-03
   5    9.998       9.016       7.834       6.122       3.065       4.086       3.770       2.820       1.512      4.4843E-03
   6    9.998       9.069       8.005       6.694       5.187       4.683       3.959       2.889       1.536      4.5568E-03
   7    9.998       9.160       8.242       7.204       6.112       5.216       4.223       3.013       1.586      4.7040E-03
   8    9.998       9.243       8.431       7.534       6.565       5.562       4.437       3.129       1.637      4.8542E-03
   9    9.998       9.300       8.552       7.723       6.797       5.760       4.575       3.211       1.674      4.9658E-03
  10    9.998       9.328       8.609       7.808       6.896       5.850       4.641       3.252       1.694      5.0233E-03
1
              HEAD IN LAYER   4 AT END OF TIME STEP  25 IN STRESS PERIOD    4
  ---------------------------------------------------------------------------

            1           2           3           4           5           6           7           8           9          10
 ........................................................................................................................
   1    9.998       9.257       8.470       7.610       6.668       5.639       4.477       3.144       1.640      4.9002E-03
   2    9.998       9.219       8.385       7.471       6.494       5.493       4.380       3.089       1.615      4.8280E-03
   3    9.998       9.147       8.216       7.169       6.073       5.178       4.191       2.990       1.573      4.7024E-03
   4    9.998       9.062       7.992       6.677       5.173       4.665       3.942       2.876       1.529      4.5702E-03
   5    9.998       9.014       7.830       6.121       3.237       4.086       3.765       2.815       1.508      4.5089E-03
   6    9.998       9.067       8.001       6.689       5.187       4.678       3.953       2.884       1.533      4.5819E-03
   7    9.998       9.158       8.238       7.199       6.106       5.210       4.217       3.008       1.583      4.7302E-03
   8    9.998       9.241       8.428       7.530       6.560       5.556       4.431       3.125       1.633      4.8815E-03
   9    9.998       9.298       8.549       7.719       6.791       5.755       4.570       3.207       1.671      4.9940E-03
  10    9.998       9.326       8.606       7.804       6.891       5.844       4.636       3.248       1.690      5.0520E-03

 HEAD WILL BE SAVED ON UNIT   51 AT END OF TIME STEP   25, STRESS PERIOD    4

 DRAWDOWN WILL BE SAVED ON UNIT   52 AT END OF TIME STEP   25, STRESS PERIOD    4
1
  VOLUMETRIC BUDGET FOR ENTIRE MODEL AT END OF TIME STEP   25, STRESS PERIOD   4
  ------------------------------------------------------------------------------

     CUMULATIVE VOLUMES      L**3       RATES FOR THIS TIME STEP      L**3/T
     ------------------                 ------------------------

           IN:                                      IN:
           ---                                      ---
             STORAGE =      472751.0312               STORAGE =         825.6927
       CONSTANT HEAD =           0.0000         CONSTANT HEAD =           0.0000
               WELLS =           0.0000                 WELLS =           0.0000
     HEAD DEP BOUNDS =       38798.5508       HEAD DEP BOUNDS =         485.0316

            TOTAL IN =      511549.5938              TOTAL IN =        1310.7242

          OUT:                                     OUT:
          ----                                     ----
             STORAGE =           0.0000               STORAGE =           0.0000
       CONSTANT HEAD =           0.0000         CONSTANT HEAD =           0.0000
               WELLS =       62500.0000                 WELLS =         500.0000
     HEAD DEP BOUNDS =      449051.4062       HEAD DEP BOUNDS =         810.7548

           TOTAL OUT =      511551.4062             TOTAL OUT =        1310.7549

            IN - OUT =          -1.8125              IN - OUT =      -3.0640E-02

 PERCENT DISCREPANCY =          -0.00     PERCENT DISCREPANCY =          -0.00






         TIME SUMMARY AT END OF TIME STEP   25 IN STRESS PERIOD    4
                    SECONDS     MINUTES      HOURS       DAYS        YEARS
                    -----------------------------------------------------------
   TIME STEP LENGTH  86400.      1440.0      24.000      1.0000     2.73785E-03
 STRESS PERIOD TIME 2.16000E+06  36000.      600.00      25.000     6.84463E-02
         TOTAL TIME 1.95264E+07 3.25440E+05  5424.0      226.00     0.61875    
1
 
 SOLVING FOR HEAD 

 OUTPUT CONTROL FOR STRESS PERIOD    4   TIME STEP   26
    SAVE HEAD FOR ALL LAYERS
    SAVE DRAWDOWN FOR ALL LAYERS
    SAVE BUDGET
    PRINT HEAD FOR ALL LAYERS
    PRINT BUDGET
 UBDSV1 SAVING "         STORAGE" ON UNIT  53 AT TIME STEP 26, STRESS PERIOD   4
 UBDSV2 SAVING "   CONSTANT HEAD" ON UNIT  53 AT TIME STEP 26, STRESS PERIOD   4
 UBDSV1 SAVING "FLOW RIGHT FACE " ON UNIT  53 AT TIME STEP 26, STRESS PERIOD   4
 UBDSV1 SAVING "FLOW FRONT FACE " ON UNIT  53 AT TIME STEP 26, STRESS PERIOD   4
 UBDSV1 SAVING "FLOW LOWER FACE " ON UNIT  53 AT TIME STEP 26, STRESS PERIOD   4
1
              HEAD IN LAYER   1 AT END OF TIME STEP  26 IN STRESS PERIOD    4
  ---------------------------------------------------------------------------

            1           2           3           4           5           6           7           8           9          10
 ........................................................................................................................
   1    9.998       9.264       8.482       7.626       6.686       5.658       4.496       3.161       1.652      2.3251E-03
   2    9.998       9.226       8.397       7.487       6.513       5.513       4.399       3.106       1.627      2.2885E-03
   3    9.998       9.154       8.229       7.187       6.093       5.198       4.210       3.006       1.585      2.2247E-03
   4    9.998       9.070       8.006       6.696       5.178       4.683       3.961       2.893       1.541      2.1580E-03
   5    9.998       9.022       7.845       6.131       2.260       4.084       3.782       2.831       1.520      2.1270E-03
   6    9.998       9.075       8.015       6.708       5.192       4.696       3.971       2.900       1.545      2.1637E-03
   7    9.998       9.165       8.251       7.216       6.126       5.229       4.235       3.024       1.594      2.2387E-03
   8    9.998       9.248       8.439       7.545       6.578       5.575       4.450       3.141       1.645      2.3153E-03
   9    9.998       9.304       8.560       7.733       6.809       5.773       4.587       3.223       1.683      2.3723E-03
  10    9.998       9.332       8.617       7.818       6.908       5.862       4.653       3.264       1.702      2.4018E-03
1
              HEAD IN LAYER   2 AT END OF TIME STEP  26 IN STRESS PERIOD    4
  ---------------------------------------------------------------------------

            1           2           3           4           5           6           7           8           9          10
 ........................................................................................................................
   1    9.998       9.259       8.472       7.613       6.672       5.643       4.482       3.149       1.644      4.5241E-03
   2    9.998       9.220       8.387       7.474       6.497       5.498       4.385       3.095       1.620      4.4571E-03
   3    9.998       9.148       8.219       7.173       6.077       5.182       4.196       2.995       1.578      4.3404E-03
   4    9.998       9.064       7.995       6.681       5.164       4.668       3.947       2.881       1.533      4.2176E-03
   5    9.998       9.016       7.834       6.115       2.690       4.073       3.768       2.820       1.513      4.1606E-03
   6    9.998       9.069       8.004       6.693       5.178       4.681       3.958       2.889       1.537      4.2284E-03
   7    9.998       9.160       8.241       7.202       6.110       5.214       4.222       3.013       1.587      4.3662E-03
   8    9.998       9.242       8.430       7.533       6.563       5.560       4.436       3.130       1.638      4.5067E-03
   9    9.998       9.299       8.551       7.722       6.795       5.759       4.574       3.212       1.676      4.6111E-03
  10    9.998       9.327       8.608       7.806       6.894       5.848       4.640       3.253       1.695      4.6650E-03
1
              HEAD IN LAYER   3 AT END OF TIME STEP  26 IN STRESS PERIOD    4
  ---------------------------------------------------------------------------

            1           2           3           4           5           6           7           8           9          10
 ........................................................................................................................
   1    9.998       9.255       8.466       7.603       6.660       5.631       4.470       3.140       1.638      4.8575E-03
   2    9.998       9.216       8.380       7.464       6.486       5.486       4.373       3.085       1.613      4.7856E-03
   3    9.998       9.144       8.211       7.163       6.065       5.170       4.184       2.985       1.571      4.6605E-03
   4    9.998       9.060       7.987       6.670       5.160       4.656       3.935       2.871       1.527      4.5289E-03
   5    9.998       9.012       7.825       6.110       3.050       4.071       3.757       2.810       1.506      4.4679E-03
   6    9.998       9.064       7.997       6.682       5.173       4.669       3.946       2.879       1.531      4.5406E-03
   7    9.998       9.156       8.234       7.193       6.099       5.202       4.210       3.003       1.581      4.6885E-03
   8    9.998       9.239       8.424       7.524       6.552       5.549       4.425       3.120       1.632      4.8393E-03
   9    9.998       9.296       8.545       7.713       6.785       5.748       4.564       3.203       1.669      4.9514E-03
  10    9.998       9.324       8.602       7.798       6.885       5.838       4.630       3.244       1.689      5.0093E-03
1
              HEAD IN LAYER   4 AT END OF TIME STEP  26 IN STRESS PERIOD    4
  ---------------------------------------------------------------------------

            1           2           3           4           5           6           7           8           9          10
 ........................................................................................................................
   1    9.998       9.253       8.462       7.599       6.655       5.625       4.465       3.135       1.634      4.8846E-03
   2    9.998       9.214       8.377       7.460       6.480       5.480       4.368       3.080       1.610      4.8122E-03
   3    9.998       9.142       8.208       7.158       6.059       5.164       4.178       2.980       1.568      4.6863E-03
   4    9.998       9.058       7.984       6.665       5.159       4.650       3.929       2.867       1.524      4.5539E-03
   5    9.998       9.010       7.821       6.109       3.222       4.071       3.751       2.805       1.503      4.4925E-03
   6    9.998       9.062       7.993       6.677       5.173       4.663       3.940       2.874       1.527      4.5657E-03
   7    9.998       9.154       8.230       7.188       6.093       5.196       4.205       2.999       1.577      4.7146E-03
   8    9.998       9.237       8.420       7.519       6.547       5.543       4.420       3.116       1.628      4.8665E-03
   9    9.998       9.294       8.542       7.709       6.779       5.742       4.558       3.198       1.666      4.9796E-03
  10    9.998       9.322       8.599       7.794       6.880       5.832       4.625       3.239       1.686      5.0379E-03

 HEAD WILL BE SAVED ON UNIT   51 AT END OF TIME STEP   26, STRESS PERIOD    4

 DRAWDOWN WILL BE SAVED ON UNIT   52 AT END OF TIME STEP   26, STRESS PERIOD    4
1
  VOLUMETRIC BUDGET FOR ENTIRE MODEL AT END OF TIME STEP   26, STRESS PERIOD   4
  ------------------------------------------------------------------------------

     CUMULATIVE VOLUMES      L**3       RATES FOR THIS TIME STEP      L**3/T
     ------------------                 ------------------------

           IN:                                      IN:
           ---                                      ---
             STORAGE =      473571.5312               STORAGE =         820.5051
       CONSTANT HEAD =           0.0000         CONSTANT HEAD =           0.0000
               WELLS =           0.0000                 WELLS =           0.0000
     HEAD DEP BOUNDS =       39286.1016       HEAD DEP BOUNDS =         487.5514

            TOTAL IN =      512857.6250              TOTAL IN =        1308.0565

          OUT:                                     OUT:
          ----                                     ----
             STORAGE =           0.0000               STORAGE =           0.0000
       CONSTANT HEAD =           0.0000         CONSTANT HEAD =           0.0000
               WELLS =       63000.0000                 WELLS =         500.0000
     HEAD DEP BOUNDS =      449859.4688       HEAD DEP BOUNDS =         808.0770

           TOTAL OUT =      512859.4688             TOTAL OUT =        1308.0770

            IN - OUT =          -1.8438              IN - OUT =      -2.0508E-02

 PERCENT DISCREPANCY =          -0.00     PERCENT DISCREPANCY =          -0.00






         TIME SUMMARY AT END OF TIME STEP   26 IN STRESS PERIOD    4
                    SECONDS     MINUTES      HOURS       DAYS        YEARS
                    -----------------------------------------------------------
   TIME STEP LENGTH  86400.      1440.0      24.000      1.0000     2.73785E-03
 STRESS PERIOD TIME 2.24640E+06  37440.      624.00      26.000     7.11841E-02
         TOTAL TIME 1.96128E+07 3.26880E+05  5448.0      227.00     0.62149    
1
 
 SOLVING FOR HEAD 

 OUTPUT CONTROL FOR STRESS PERIOD    4   TIME STEP   27
    SAVE HEAD FOR ALL LAYERS
    SAVE DRAWDOWN FOR ALL LAYERS
    SAVE BUDGET
    PRINT HEAD FOR ALL LAYERS
    PRINT BUDGET
 UBDSV1 SAVING "         STORAGE" ON UNIT  53 AT TIME STEP 27, STRESS PERIOD   4
 UBDSV2 SAVING "   CONSTANT HEAD" ON UNIT  53 AT TIME STEP 27, STRESS PERIOD   4
 UBDSV1 SAVING "FLOW RIGHT FACE " ON UNIT  53 AT TIME STEP 27, STRESS PERIOD   4
 UBDSV1 SAVING "FLOW FRONT FACE " ON UNIT  53 AT TIME STEP 27, STRESS PERIOD   4
 UBDSV1 SAVING "FLOW LOWER FACE " ON UNIT  53 AT TIME STEP 27, STRESS PERIOD   4
1
              HEAD IN LAYER   1 AT END OF TIME STEP  27 IN STRESS PERIOD    4
  ---------------------------------------------------------------------------

            1           2           3           4           5           6           7           8           9          10
 ........................................................................................................................
   1    9.998       9.260       8.474       7.614       6.673       5.645       4.483       3.151       1.646      2.3171E-03
   2    9.998       9.221       8.389       7.476       6.499       5.499       4.387       3.096       1.622      2.2804E-03
   3    9.998       9.150       8.221       7.175       6.079       5.184       4.197       2.996       1.580      2.2165E-03
   4    9.998       9.065       7.998       6.684       5.164       4.669       3.948       2.882       1.535      2.1497E-03
   5    9.998       9.018       7.837       6.118       2.245       4.069       3.769       2.821       1.514      2.1186E-03
   6    9.998       9.070       8.007       6.696       5.178       4.682       3.958       2.890       1.539      2.1555E-03
   7    9.998       9.161       8.242       7.205       6.112       5.215       4.223       3.015       1.589      2.2306E-03
   8    9.998       9.244       8.432       7.535       6.565       5.562       4.438       3.132       1.640      2.3076E-03
   9    9.998       9.300       8.552       7.723       6.796       5.761       4.576       3.214       1.678      2.3650E-03
  10    9.998       9.328       8.609       7.808       6.896       5.850       4.642       3.255       1.698      2.3945E-03
1
              HEAD IN LAYER   2 AT END OF TIME STEP  27 IN STRESS PERIOD    4
  ---------------------------------------------------------------------------

            1           2           3           4           5           6           7           8           9          10
 ........................................................................................................................
   1    9.998       9.254       8.464       7.601       6.659       5.630       4.469       3.140       1.639      4.5097E-03
   2    9.998       9.216       8.379       7.463       6.484       5.484       4.373       3.085       1.615      4.4424E-03
   3    9.998       9.144       8.210       7.161       6.063       5.168       4.183       2.985       1.573      4.3254E-03
   4    9.998       9.059       7.987       6.669       5.150       4.654       3.934       2.871       1.528      4.2024E-03
   5    9.998       9.012       7.825       6.103       2.675       4.059       3.755       2.810       1.507      4.1453E-03
   6    9.998       9.064       7.996       6.681       5.164       4.667       3.945       2.879       1.532      4.2133E-03
   7    9.998       9.155       8.232       7.191       6.097       5.200       4.209       3.004       1.582      4.3516E-03
   8    9.998       9.238       8.422       7.522       6.551       5.547       4.424       3.121       1.633      4.4927E-03
   9    9.998       9.295       8.543       7.711       6.783       5.747       4.563       3.203       1.671      4.5977E-03
  10    9.998       9.323       8.601       7.796       6.883       5.836       4.629       3.245       1.691      4.6519E-03
1
              HEAD IN LAYER   3 AT END OF TIME STEP  27 IN STRESS PERIOD    4
  ---------------------------------------------------------------------------

            1           2           3           4           5           6           7           8           9          10
 ........................................................................................................................
   1    9.998       9.251       8.457       7.592       6.647       5.618       4.458       3.130       1.633      4.8421E-03
   2    9.998       9.212       8.372       7.453       6.473       5.472       4.361       3.075       1.608      4.7700E-03
   3    9.998       9.140       8.203       7.151       6.052       5.156       4.171       2.975       1.566      4.6446E-03
   4    9.998       9.055       7.979       6.658       5.145       4.642       3.922       2.862       1.521      4.5127E-03
   5    9.998       9.007       7.817       6.098       3.035       4.056       3.744       2.800       1.501      4.4517E-03
   6    9.998       9.060       7.988       6.671       5.159       4.655       3.933       2.869       1.525      4.5247E-03
   7    9.998       9.152       8.225       7.181       6.085       5.188       4.198       2.994       1.575      4.6730E-03
   8    9.998       9.235       8.416       7.513       6.540       5.536       4.413       3.111       1.627      4.8244E-03
   9    9.998       9.292       8.537       7.703       6.773       5.736       4.552       3.194       1.665      4.9372E-03
  10    9.998       9.320       8.595       7.788       6.873       5.826       4.619       3.236       1.684      4.9953E-03
1
              HEAD IN LAYER   4 AT END OF TIME STEP  27 IN STRESS PERIOD    4
  ---------------------------------------------------------------------------

            1           2           3           4           5           6           7           8           9          10
 ........................................................................................................................
   1    9.998       9.249       8.454       7.587       6.642       5.612       4.452       3.125       1.629      4.8692E-03
   2    9.998       9.210       8.368       7.448       6.467       5.466       4.355       3.070       1.605      4.7965E-03
   3    9.998       9.138       8.199       7.146       6.046       5.150       4.166       2.971       1.563      4.6703E-03
   4    9.998       9.053       7.975       6.653       5.145       4.636       3.916       2.857       1.518      4.5376E-03
   5    9.998       9.005       7.813       6.097       3.207       4.057       3.738       2.795       1.497      4.4762E-03
   6    9.998       9.058       7.984       6.665       5.159       4.649       3.928       2.865       1.522      4.5497E-03
   7    9.998       9.150       8.222       7.176       6.080       5.182       4.192       2.989       1.572      4.6991E-03
   8    9.998       9.233       8.413       7.508       6.534       5.530       4.408       3.107       1.623      4.8517E-03
   9    9.998       9.290       8.534       7.699       6.767       5.730       4.547       3.189       1.661      4.9653E-03
  10    9.998       9.318       8.592       7.784       6.868       5.820       4.614       3.231       1.681      5.0239E-03

 HEAD WILL BE SAVED ON UNIT   51 AT END OF TIME STEP   27, STRESS PERIOD    4

 DRAWDOWN WILL BE SAVED ON UNIT   52 AT END OF TIME STEP   27, STRESS PERIOD    4
1
  VOLUMETRIC BUDGET FOR ENTIRE MODEL AT END OF TIME STEP   27, STRESS PERIOD   4
  ------------------------------------------------------------------------------

     CUMULATIVE VOLUMES      L**3       RATES FOR THIS TIME STEP      L**3/T
     ------------------                 ------------------------

           IN:                                      IN:
           ---                                      ---
             STORAGE =      474386.8750               STORAGE =         815.3390
       CONSTANT HEAD =           0.0000         CONSTANT HEAD =           0.0000
               WELLS =           0.0000                 WELLS =           0.0000
     HEAD DEP BOUNDS =       39776.1602       HEAD DEP BOUNDS =         490.0569

            TOTAL IN =      514163.0312              TOTAL IN =        1305.3960

          OUT:                                     OUT:
          ----                                     ----
             STORAGE =           0.0000               STORAGE =           0.0000
       CONSTANT HEAD =           0.0000         CONSTANT HEAD =           0.0000
               WELLS =       63500.0000                 WELLS =         500.0000
     HEAD DEP BOUNDS =      450664.8750       HEAD DEP BOUNDS =         805.4146

           TOTAL OUT =      514164.8750             TOTAL OUT =        1305.4146

            IN - OUT =          -1.8438              IN - OUT =      -1.8555E-02

 PERCENT DISCREPANCY =          -0.00     PERCENT DISCREPANCY =          -0.00






         TIME SUMMARY AT END OF TIME STEP   27 IN STRESS PERIOD    4
                    SECONDS     MINUTES      HOURS       DAYS        YEARS
                    -----------------------------------------------------------
   TIME STEP LENGTH  86400.      1440.0      24.000      1.0000     2.73785E-03
 STRESS PERIOD TIME 2.33280E+06  38880.      648.00      27.000     7.39220E-02
         TOTAL TIME 1.96992E+07 3.28320E+05  5472.0      228.00     0.62423    
1
 
 SOLVING FOR HEAD 

 OUTPUT CONTROL FOR STRESS PERIOD    4   TIME STEP   28
    SAVE HEAD FOR ALL LAYERS
    SAVE DRAWDOWN FOR ALL LAYERS
    SAVE BUDGET
    PRINT HEAD FOR ALL LAYERS
    PRINT BUDGET
 UBDSV1 SAVING "         STORAGE" ON UNIT  53 AT TIME STEP 28, STRESS PERIOD   4
 UBDSV2 SAVING "   CONSTANT HEAD" ON UNIT  53 AT TIME STEP 28, STRESS PERIOD   4
 UBDSV1 SAVING "FLOW RIGHT FACE " ON UNIT  53 AT TIME STEP 28, STRESS PERIOD   4
 UBDSV1 SAVING "FLOW FRONT FACE " ON UNIT  53 AT TIME STEP 28, STRESS PERIOD   4
 UBDSV1 SAVING "FLOW LOWER FACE " ON UNIT  53 AT TIME STEP 28, STRESS PERIOD   4
1
              HEAD IN LAYER   1 AT END OF TIME STEP  28 IN STRESS PERIOD    4
  ---------------------------------------------------------------------------

            1           2           3           4           5           6           7           8           9          10
 ........................................................................................................................
   1    9.998       9.255       8.466       7.603       6.660       5.631       4.471       3.142       1.641      2.3092E-03
   2    9.998       9.217       8.380       7.464       6.486       5.486       4.374       3.087       1.617      2.2723E-03
   3    9.998       9.145       8.212       7.163       6.065       5.170       4.184       2.987       1.574      2.2084E-03
   4    9.998       9.061       7.989       6.672       5.150       4.654       3.935       2.872       1.530      2.1413E-03
   5    9.998       9.013       7.828       6.106       2.230       4.055       3.755       2.811       1.509      2.1102E-03
   6    9.998       9.066       7.998       6.684       5.164       4.667       3.946       2.880       1.534      2.1473E-03
   7    9.998       9.157       8.234       7.193       6.099       5.202       4.211       3.005       1.584      2.2227E-03
   8    9.998       9.239       8.424       7.524       6.552       5.549       4.426       3.122       1.635      2.2999E-03
   9    9.998       9.296       8.545       7.713       6.784       5.748       4.565       3.205       1.673      2.3576E-03
  10    9.998       9.324       8.602       7.798       6.884       5.838       4.631       3.247       1.693      2.3873E-03
1
              HEAD IN LAYER   2 AT END OF TIME STEP  28 IN STRESS PERIOD    4
  ---------------------------------------------------------------------------

            1           2           3           4           5           6           7           8           9          10
 ........................................................................................................................
   1    9.998       9.250       8.456       7.590       6.646       5.616       4.457       3.131       1.634      4.4953E-03
   2    9.998       9.211       8.371       7.451       6.471       5.470       4.360       3.076       1.610      4.4278E-03
   3    9.998       9.139       8.202       7.150       6.050       5.154       4.170       2.975       1.567      4.3105E-03
   4    9.998       9.055       7.978       6.657       5.136       4.639       3.921       2.861       1.522      4.1872E-03
   5    9.998       9.007       7.816       6.091       2.660       4.044       3.742       2.800       1.502      4.1301E-03
   6    9.998       9.060       7.987       6.669       5.150       4.653       3.932       2.869       1.527      4.1984E-03
   7    9.998       9.151       8.224       7.180       6.084       5.187       4.197       2.994       1.577      4.3372E-03
   8    9.998       9.234       8.415       7.511       6.538       5.534       4.413       3.112       1.628      4.4789E-03
   9    9.998       9.291       8.536       7.701       6.771       5.734       4.552       3.195       1.666      4.5844E-03
  10    9.998       9.319       8.594       7.786       6.871       5.824       4.618       3.236       1.686      4.6389E-03
1
              HEAD IN LAYER   3 AT END OF TIME STEP  28 IN STRESS PERIOD    4
  ---------------------------------------------------------------------------

            1           2           3           4           5           6           7           8           9          10
 ........................................................................................................................
   1    9.998       9.247       8.449       7.581       6.634       5.605       4.446       3.121       1.627      4.8268E-03
   2    9.998       9.208       8.364       7.442       6.460       5.459       4.349       3.066       1.603      4.7544E-03
   3    9.998       9.136       8.195       7.139       6.038       5.142       4.159       2.966       1.561      4.6287E-03
   4    9.998       9.051       7.970       6.646       5.131       4.627       3.909       2.852       1.516      4.4966E-03
   5    9.998       9.003       7.808       6.086       3.020       4.042       3.731       2.790       1.495      4.4355E-03
   6    9.998       9.056       7.980       6.659       5.146       4.641       3.921       2.860       1.520      4.5088E-03
   7    9.998       9.147       8.217       7.170       6.072       5.175       4.186       2.985       1.570      4.6576E-03
   8    9.998       9.231       8.408       7.502       6.527       5.523       4.402       3.102       1.622      4.8097E-03
   9    9.998       9.288       8.530       7.693       6.761       5.723       4.541       3.185       1.660      4.9230E-03
  10    9.998       9.316       8.588       7.778       6.861       5.814       4.608       3.227       1.679      4.9815E-03
1
              HEAD IN LAYER   4 AT END OF TIME STEP  28 IN STRESS PERIOD    4
  ---------------------------------------------------------------------------

            1           2           3           4           5           6           7           8           9          10
 ........................................................................................................................
   1    9.998       9.245       8.446       7.576       6.629       5.599       4.440       3.116       1.624      4.8538E-03
   2    9.998       9.206       8.360       7.437       6.454       5.453       4.343       3.061       1.600      4.7810E-03
   3    9.998       9.134       8.191       7.134       6.032       5.136       4.153       2.961       1.557      4.6544E-03
   4    9.998       9.049       7.966       6.641       5.131       4.621       3.904       2.847       1.513      4.5214E-03
   5    9.998       9.001       7.804       6.085       3.192       4.042       3.726       2.785       1.492      4.4600E-03
   6    9.998       9.054       7.976       6.654       5.145       4.635       3.915       2.855       1.517      4.5337E-03
   7    9.998       9.146       8.214       7.165       6.067       5.169       4.180       2.980       1.567      4.6837E-03
   8    9.998       9.229       8.405       7.498       6.522       5.517       4.396       3.098       1.618      4.8369E-03
   9    9.998       9.286       8.527       7.688       6.756       5.718       4.536       3.181       1.657      4.9510E-03
  10    9.998       9.315       8.585       7.774       6.856       5.808       4.603       3.223       1.676      5.0100E-03

 HEAD WILL BE SAVED ON UNIT   51 AT END OF TIME STEP   28, STRESS PERIOD    4

 DRAWDOWN WILL BE SAVED ON UNIT   52 AT END OF TIME STEP   28, STRESS PERIOD    4
1
  VOLUMETRIC BUDGET FOR ENTIRE MODEL AT END OF TIME STEP   28, STRESS PERIOD   4
  ------------------------------------------------------------------------------

     CUMULATIVE VOLUMES      L**3       RATES FOR THIS TIME STEP      L**3/T
     ------------------                 ------------------------

           IN:                                      IN:
           ---                                      ---
             STORAGE =      475197.0938               STORAGE =         810.2068
       CONSTANT HEAD =           0.0000         CONSTANT HEAD =           0.0000
               WELLS =           0.0000                 WELLS =           0.0000
     HEAD DEP BOUNDS =       40268.7070       HEAD DEP BOUNDS =         492.5477

            TOTAL IN =      515465.8125              TOTAL IN =        1302.7545

          OUT:                                     OUT:
          ----                                     ----
             STORAGE =           0.0000               STORAGE =           0.0000
       CONSTANT HEAD =           0.0000         CONSTANT HEAD =           0.0000
               WELLS =       64000.0000                 WELLS =         500.0000
     HEAD DEP BOUNDS =      451467.6562       HEAD DEP BOUNDS =         802.7682

           TOTAL OUT =      515467.6562             TOTAL OUT =        1302.7683

            IN - OUT =          -1.8438              IN - OUT =      -1.3794E-02

 PERCENT DISCREPANCY =          -0.00     PERCENT DISCREPANCY =          -0.00






         TIME SUMMARY AT END OF TIME STEP   28 IN STRESS PERIOD    4
                    SECONDS     MINUTES      HOURS       DAYS        YEARS
                    -----------------------------------------------------------
   TIME STEP LENGTH  86400.      1440.0      24.000      1.0000     2.73785E-03
 STRESS PERIOD TIME 2.41920E+06  40320.      672.00      28.000     7.66598E-02
         TOTAL TIME 1.97856E+07 3.29760E+05  5496.0      229.00     0.62697    
1
 
 SOLVING FOR HEAD 

 OUTPUT CONTROL FOR STRESS PERIOD    4   TIME STEP   29
    SAVE HEAD FOR ALL LAYERS
    SAVE DRAWDOWN FOR ALL LAYERS
    SAVE BUDGET
    PRINT HEAD FOR ALL LAYERS
    PRINT BUDGET
 UBDSV1 SAVING "         STORAGE" ON UNIT  53 AT TIME STEP 29, STRESS PERIOD   4
 UBDSV2 SAVING "   CONSTANT HEAD" ON UNIT  53 AT TIME STEP 29, STRESS PERIOD   4
 UBDSV1 SAVING "FLOW RIGHT FACE " ON UNIT  53 AT TIME STEP 29, STRESS PERIOD   4
 UBDSV1 SAVING "FLOW FRONT FACE " ON UNIT  53 AT TIME STEP 29, STRESS PERIOD   4
 UBDSV1 SAVING "FLOW LOWER FACE " ON UNIT  53 AT TIME STEP 29, STRESS PERIOD   4
1
              HEAD IN LAYER   1 AT END OF TIME STEP  29 IN STRESS PERIOD    4
  ---------------------------------------------------------------------------

            1           2           3           4           5           6           7           8           9          10
 ........................................................................................................................
   1    9.998       9.251       8.458       7.592       6.647       5.618       4.459       3.132       1.636      2.3012E-03
   2    9.998       9.213       8.372       7.453       6.473       5.472       4.362       3.077       1.612      2.2644E-03
   3    9.998       9.141       8.204       7.152       6.052       5.156       4.172       2.977       1.569      2.2004E-03
   4    9.998       9.056       7.980       6.660       5.135       4.640       3.922       2.863       1.524      2.1330E-03
   5    9.998       9.009       7.819       6.094       2.215       4.040       3.742       2.801       1.503      2.1021E-03
   6    9.998       9.061       7.990       6.672       5.150       4.653       3.933       2.870       1.528      2.1392E-03
   7    9.998       9.153       8.226       7.182       6.086       5.188       4.198       2.996       1.579      2.2149E-03
   8    9.998       9.235       8.416       7.513       6.540       5.536       4.414       3.113       1.630      2.2923E-03
   9    9.998       9.292       8.537       7.703       6.773       5.736       4.554       3.196       1.668      2.3502E-03
  10    9.998       9.320       8.595       7.788       6.873       5.826       4.620       3.238       1.688      2.3801E-03
1
              HEAD IN LAYER   2 AT END OF TIME STEP  29 IN STRESS PERIOD    4
  ---------------------------------------------------------------------------

            1           2           3           4           5           6           7           8           9          10
 ........................................................................................................................
   1    9.998       9.246       8.448       7.579       6.633       5.603       4.445       3.121       1.629      4.4810E-03
   2    9.998       9.207       8.362       7.440       6.458       5.457       4.348       3.066       1.604      4.4133E-03
   3    9.998       9.135       8.194       7.138       6.036       5.140       4.158       2.966       1.562      4.2958E-03
   4    9.998       9.050       7.969       6.645       5.122       4.625       3.908       2.852       1.517      4.1722E-03
   5    9.998       9.003       7.808       6.079       2.645       4.030       3.729       2.790       1.496      4.1151E-03
   6    9.998       9.055       7.979       6.658       5.136       4.638       3.919       2.859       1.521      4.1836E-03
   7    9.998       9.147       8.216       7.169       6.071       5.173       4.185       2.985       1.572      4.3228E-03
   8    9.998       9.230       8.407       7.501       6.526       5.522       4.401       3.103       1.623      4.4651E-03
   9    9.998       9.288       8.529       7.691       6.759       5.722       4.541       3.186       1.661      4.5711E-03
  10    9.998       9.316       8.586       7.777       6.860       5.812       4.607       3.228       1.681      4.6259E-03
1
              HEAD IN LAYER   3 AT END OF TIME STEP  29 IN STRESS PERIOD    4
  ---------------------------------------------------------------------------

            1           2           3           4           5           6           7           8           9          10
 ........................................................................................................................
   1    9.998       9.242       8.441       7.570       6.622       5.591       4.434       3.112       1.622      4.8116E-03
   2    9.998       9.203       8.356       7.431       6.446       5.445       4.337       3.056       1.598      4.7390E-03
   3    9.998       9.131       8.186       7.128       6.024       5.128       4.146       2.956       1.555      4.6130E-03
   4    9.998       9.046       7.962       6.634       5.117       4.613       3.897       2.842       1.511      4.4806E-03
   5    9.998       8.998       7.799       6.074       3.005       4.027       3.718       2.780       1.490      4.4195E-03
   6    9.998       9.051       7.971       6.647       5.132       4.627       3.908       2.850       1.515      4.4930E-03
   7    9.998       9.143       8.209       7.159       6.059       5.162       4.174       2.975       1.565      4.6424E-03
   8    9.998       9.227       8.400       7.492       6.515       5.510       4.390       3.093       1.617      4.7951E-03
   9    9.998       9.284       8.523       7.682       6.749       5.711       4.530       3.177       1.655      4.9089E-03
  10    9.998       9.312       8.581       7.768       6.850       5.802       4.597       3.219       1.675      4.9677E-03
1
              HEAD IN LAYER   4 AT END OF TIME STEP  29 IN STRESS PERIOD    4
  ---------------------------------------------------------------------------

            1           2           3           4           5           6           7           8           9          10
 ........................................................................................................................
   1    9.998       9.241       8.438       7.565       6.616       5.585       4.428       3.107       1.619      4.8386E-03
   2    9.998       9.202       8.352       7.426       6.441       5.439       4.331       3.052       1.594      4.7655E-03
   3    9.998       9.129       8.183       7.123       6.019       5.122       4.141       2.951       1.552      4.6386E-03
   4    9.998       9.044       7.958       6.629       5.117       4.607       3.891       2.837       1.507      4.5054E-03
   5    9.997       8.996       7.795       6.073       3.177       4.028       3.713       2.776       1.487      4.4439E-03
   6    9.998       9.049       7.968       6.642       5.131       4.621       3.902       2.845       1.512      4.5179E-03
   7    9.998       9.141       8.206       7.154       6.054       5.156       4.168       2.971       1.562      4.6684E-03
   8    9.998       9.225       8.397       7.487       6.510       5.505       4.385       3.089       1.613      4.8222E-03
   9    9.998       9.283       8.520       7.678       6.744       5.706       4.525       3.172       1.652      4.9369E-03
  10    9.998       9.311       8.578       7.764       6.845       5.797       4.592       3.214       1.672      4.9962E-03

 HEAD WILL BE SAVED ON UNIT   51 AT END OF TIME STEP   29, STRESS PERIOD    4

 DRAWDOWN WILL BE SAVED ON UNIT   52 AT END OF TIME STEP   29, STRESS PERIOD    4
1
  VOLUMETRIC BUDGET FOR ENTIRE MODEL AT END OF TIME STEP   29, STRESS PERIOD   4
  ------------------------------------------------------------------------------

     CUMULATIVE VOLUMES      L**3       RATES FOR THIS TIME STEP      L**3/T
     ------------------                 ------------------------

           IN:                                      IN:
           ---                                      ---
             STORAGE =      476002.1875               STORAGE =         805.1053
       CONSTANT HEAD =           0.0000         CONSTANT HEAD =           0.0000
               WELLS =           0.0000                 WELLS =           0.0000
     HEAD DEP BOUNDS =       40763.7383       HEAD DEP BOUNDS =         495.0312

            TOTAL IN =      516765.9375              TOTAL IN =        1300.1365

          OUT:                                     OUT:
          ----                                     ----
             STORAGE =           0.0000               STORAGE =           0.0000
       CONSTANT HEAD =           0.0000         CONSTANT HEAD =           0.0000
               WELLS =       64500.0000                 WELLS =         500.0000
     HEAD DEP BOUNDS =      452267.7812       HEAD DEP BOUNDS =         800.1397

           TOTAL OUT =      516767.7812             TOTAL OUT =        1300.1396

            IN - OUT =          -1.8438              IN - OUT =      -3.1738E-03

 PERCENT DISCREPANCY =          -0.00     PERCENT DISCREPANCY =          -0.00






         TIME SUMMARY AT END OF TIME STEP   29 IN STRESS PERIOD    4
                    SECONDS     MINUTES      HOURS       DAYS        YEARS
                    -----------------------------------------------------------
   TIME STEP LENGTH  86400.      1440.0      24.000      1.0000     2.73785E-03
 STRESS PERIOD TIME 2.50560E+06  41760.      696.00      29.000     7.93977E-02
         TOTAL TIME 1.98720E+07 3.31200E+05  5520.0      230.00     0.62971    
1
 
 SOLVING FOR HEAD 

 OUTPUT CONTROL FOR STRESS PERIOD    4   TIME STEP   30
    SAVE HEAD FOR ALL LAYERS
    SAVE DRAWDOWN FOR ALL LAYERS
    SAVE BUDGET
    PRINT HEAD FOR ALL LAYERS
    PRINT BUDGET
 UBDSV1 SAVING "         STORAGE" ON UNIT  53 AT TIME STEP 30, STRESS PERIOD   4
 UBDSV2 SAVING "   CONSTANT HEAD" ON UNIT  53 AT TIME STEP 30, STRESS PERIOD   4
 UBDSV1 SAVING "FLOW RIGHT FACE " ON UNIT  53 AT TIME STEP 30, STRESS PERIOD   4
 UBDSV1 SAVING "FLOW FRONT FACE " ON UNIT  53 AT TIME STEP 30, STRESS PERIOD   4
 UBDSV1 SAVING "FLOW LOWER FACE " ON UNIT  53 AT TIME STEP 30, STRESS PERIOD   4
1
              HEAD IN LAYER   1 AT END OF TIME STEP  30 IN STRESS PERIOD    4
  ---------------------------------------------------------------------------

            1           2           3           4           5           6           7           8           9          10
 ........................................................................................................................
   1    9.998       9.247       8.449       7.581       6.634       5.605       4.447       3.123       1.631      2.2934E-03
   2    9.998       9.208       8.364       7.442       6.459       5.459       4.349       3.068       1.606      2.2564E-03
   3    9.998       9.136       8.195       7.140       6.038       5.142       4.159       2.967       1.564      2.1922E-03
   4    9.998       9.052       7.972       6.648       5.121       4.625       3.909       2.853       1.519      2.1251E-03
   5    9.998       9.004       7.811       6.082       2.200       4.026       3.729       2.791       1.498      2.0938E-03
   6    9.998       9.057       7.981       6.661       5.136       4.639       3.920       2.861       1.523      2.1311E-03
   7    9.998       9.148       8.218       7.171       6.073       5.175       4.186       2.986       1.573      2.2071E-03
   8    9.998       9.231       8.408       7.503       6.528       5.523       4.403       3.104       1.625      2.2849E-03
   9    9.998       9.288       8.530       7.693       6.761       5.724       4.542       3.188       1.664      2.3429E-03
  10    9.998       9.317       8.588       7.778       6.861       5.814       4.609       3.230       1.683      2.3732E-03
1
              HEAD IN LAYER   2 AT END OF TIME STEP  30 IN STRESS PERIOD    4
  ---------------------------------------------------------------------------

            1           2           3           4           5           6           7           8           9          10
 ........................................................................................................................
   1    9.998       9.242       8.440       7.568       6.620       5.590       4.433       3.112       1.624      4.4668E-03
   2    9.998       9.203       8.354       7.429       6.445       5.443       4.336       3.057       1.599      4.3989E-03
   3    9.998       9.131       8.185       7.126       6.023       5.127       4.145       2.956       1.556      4.2811E-03
   4    9.998       9.046       7.961       6.633       5.108       4.611       3.895       2.842       1.512      4.1573E-03
   5    9.998       8.998       7.799       6.067       2.630       4.015       3.716       2.780       1.491      4.1001E-03
   6    9.998       9.051       7.971       6.646       5.122       4.624       3.907       2.850       1.516      4.1689E-03
   7    9.998       9.143       8.208       7.158       6.058       5.160       4.173       2.975       1.566      4.3086E-03
   8    9.998       9.226       8.399       7.490       6.513       5.509       4.389       3.094       1.618      4.4515E-03
   9    9.998       9.284       8.521       7.681       6.747       5.710       4.529       3.177       1.657      4.5579E-03
  10    9.998       9.312       8.579       7.767       6.848       5.801       4.597       3.219       1.676      4.6130E-03
1
              HEAD IN LAYER   3 AT END OF TIME STEP  30 IN STRESS PERIOD    4
  ---------------------------------------------------------------------------

            1           2           3           4           5           6           7           8           9          10
 ........................................................................................................................
   1    9.998       9.238       8.433       7.559       6.609       5.578       4.422       3.102       1.617      4.7965E-03
   2    9.998       9.199       8.347       7.419       6.433       5.432       4.324       3.047       1.593      4.7237E-03
   3    9.998       9.127       8.178       7.116       6.011       5.114       4.134       2.947       1.550      4.5974E-03
   4    9.998       9.042       7.953       6.623       5.103       4.599       3.884       2.832       1.505      4.4648E-03
   5    9.997       8.994       7.791       6.062       2.990       4.013       3.705       2.771       1.485      4.4036E-03
   6    9.998       9.047       7.963       6.636       5.118       4.613       3.896       2.840       1.509      4.4774E-03
   7    9.998       9.139       8.201       7.148       6.046       5.148       4.162       2.966       1.560      4.6272E-03
   8    9.998       9.223       8.393       7.481       6.503       5.498       4.379       3.085       1.612      4.7805E-03
   9    9.998       9.280       8.515       7.672       6.737       5.699       4.519       3.168       1.650      4.8948E-03
  10    9.998       9.309       8.573       7.759       6.838       5.790       4.586       3.210       1.670      4.9540E-03
1
              HEAD IN LAYER   4 AT END OF TIME STEP  30 IN STRESS PERIOD    4
  ---------------------------------------------------------------------------

            1           2           3           4           5           6           7           8           9          10
 ........................................................................................................................
   1    9.998       9.236       8.430       7.554       6.603       5.572       4.416       3.098       1.614      4.8234E-03
   2    9.998       9.197       8.344       7.415       6.428       5.426       4.319       3.042       1.589      4.7501E-03
   3    9.998       9.125       8.174       7.111       6.005       5.108       4.128       2.942       1.547      4.6229E-03
   4    9.998       9.040       7.949       6.617       5.103       4.593       3.878       2.827       1.502      4.4895E-03
   5    9.997       8.992       7.787       6.061       3.162       4.013       3.700       2.766       1.481      4.4279E-03
   6    9.998       9.045       7.959       6.630       5.118       4.607       3.890       2.836       1.506      4.5022E-03
   7    9.998       9.137       8.198       7.143       6.041       5.142       4.156       2.961       1.557      4.6532E-03
   8    9.998       9.221       8.390       7.477       6.497       5.492       4.373       3.080       1.609      4.8076E-03
   9    9.998       9.279       8.512       7.668       6.732       5.694       4.514       3.164       1.647      4.9228E-03
  10    9.998       9.307       8.571       7.754       6.833       5.785       4.581       3.206       1.667      4.9824E-03

 HEAD WILL BE SAVED ON UNIT   51 AT END OF TIME STEP   30, STRESS PERIOD    4

 DRAWDOWN WILL BE SAVED ON UNIT   52 AT END OF TIME STEP   30, STRESS PERIOD    4
1
  VOLUMETRIC BUDGET FOR ENTIRE MODEL AT END OF TIME STEP   30, STRESS PERIOD   4
  ------------------------------------------------------------------------------

     CUMULATIVE VOLUMES      L**3       RATES FOR THIS TIME STEP      L**3/T
     ------------------                 ------------------------

           IN:                                      IN:
           ---                                      ---
             STORAGE =      476802.2188               STORAGE =         800.0325
       CONSTANT HEAD =           0.0000         CONSTANT HEAD =           0.0000
               WELLS =           0.0000                 WELLS =           0.0000
     HEAD DEP BOUNDS =       41261.2148       HEAD DEP BOUNDS =         497.4747

            TOTAL IN =      518063.4375              TOTAL IN =        1297.5072

          OUT:                                     OUT:
          ----                                     ----
             STORAGE =           0.0000               STORAGE =           0.0000
       CONSTANT HEAD =           0.0000         CONSTANT HEAD =           0.0000
               WELLS =       65000.0000                 WELLS =         500.0000
     HEAD DEP BOUNDS =      453065.3125       HEAD DEP BOUNDS =         797.5298

           TOTAL OUT =      518065.3125             TOTAL OUT =        1297.5298

            IN - OUT =          -1.8750              IN - OUT =      -2.2583E-02

 PERCENT DISCREPANCY =          -0.00     PERCENT DISCREPANCY =          -0.00






         TIME SUMMARY AT END OF TIME STEP   30 IN STRESS PERIOD    4
                    SECONDS     MINUTES      HOURS       DAYS        YEARS
                    -----------------------------------------------------------
   TIME STEP LENGTH  86400.      1440.0      24.000      1.0000     2.73785E-03
 STRESS PERIOD TIME 2.59200E+06  43200.      720.00      30.000     8.21355E-02
         TOTAL TIME 1.99584E+07 3.32640E+05  5544.0      231.00     0.63244    
1
 
 SOLVING FOR HEAD 

 OUTPUT CONTROL FOR STRESS PERIOD    4   TIME STEP   31
    SAVE HEAD FOR ALL LAYERS
    SAVE DRAWDOWN FOR ALL LAYERS
    SAVE BUDGET
    PRINT HEAD FOR ALL LAYERS
    PRINT BUDGET
 UBDSV1 SAVING "         STORAGE" ON UNIT  53 AT TIME STEP 31, STRESS PERIOD   4
 UBDSV2 SAVING "   CONSTANT HEAD" ON UNIT  53 AT TIME STEP 31, STRESS PERIOD   4
 UBDSV1 SAVING "FLOW RIGHT FACE " ON UNIT  53 AT TIME STEP 31, STRESS PERIOD   4
 UBDSV1 SAVING "FLOW FRONT FACE " ON UNIT  53 AT TIME STEP 31, STRESS PERIOD   4
 UBDSV1 SAVING "FLOW LOWER FACE " ON UNIT  53 AT TIME STEP 31, STRESS PERIOD   4
1
              HEAD IN LAYER   1 AT END OF TIME STEP  31 IN STRESS PERIOD    4
  ---------------------------------------------------------------------------

            1           2           3           4           5           6           7           8           9          10
 ........................................................................................................................
   1    9.998       9.243       8.441       7.570       6.621       5.591       4.435       3.114       1.626      2.2858E-03
   2    9.998       9.204       8.356       7.431       6.446       5.445       4.337       3.058       1.601      2.2487E-03
   3    9.998       9.132       8.187       7.129       6.025       5.128       4.146       2.958       1.558      2.1843E-03
   4    9.998       9.048       7.963       6.636       5.107       4.611       3.896       2.843       1.513      2.1169E-03
   5    9.998       9.000       7.802       6.070       2.185       4.011       3.717       2.781       1.492      2.0859E-03
   6    9.998       9.053       7.973       6.649       5.122       4.625       3.908       2.851       1.517      2.1233E-03
   7    9.998       9.144       8.210       7.160       6.060       5.161       4.174       2.977       1.568      2.1993E-03
   8    9.998       9.227       8.401       7.492       6.515       5.511       4.391       3.096       1.620      2.2774E-03
   9    9.998       9.285       8.523       7.682       6.749       5.712       4.531       3.179       1.659      2.3357E-03
  10    9.998       9.313       8.581       7.768       6.850       5.802       4.598       3.221       1.679      2.3660E-03
1
              HEAD IN LAYER   2 AT END OF TIME STEP  31 IN STRESS PERIOD    4
  ---------------------------------------------------------------------------

            1           2           3           4           5           6           7           8           9          10
 ........................................................................................................................
   1    9.998       9.238       8.432       7.557       6.607       5.577       4.421       3.103       1.619      4.4527E-03
   2    9.998       9.199       8.346       7.418       6.432       5.430       4.324       3.047       1.594      4.3846E-03
   3    9.998       9.126       8.177       7.115       6.009       5.113       4.133       2.947       1.551      4.2665E-03
   4    9.998       9.042       7.953       6.621       5.094       4.596       3.882       2.832       1.506      4.1425E-03
   5    9.997       8.994       7.791       6.055       2.615       4.001       3.704       2.770       1.486      4.0853E-03
   6    9.998       9.047       7.962       6.635       5.109       4.611       3.894       2.840       1.511      4.1543E-03
   7    9.998       9.139       8.200       7.147       6.045       5.147       4.161       2.966       1.561      4.2945E-03
   8    9.998       9.222       8.392       7.480       6.501       5.496       4.378       3.085       1.613      4.4379E-03
   9    9.998       9.280       8.514       7.671       6.735       5.698       4.518       3.169       1.652      4.5449E-03
  10    9.998       9.308       8.572       7.757       6.837       5.789       4.586       3.211       1.672      4.6002E-03
1
              HEAD IN LAYER   3 AT END OF TIME STEP  31 IN STRESS PERIOD    4
  ---------------------------------------------------------------------------

            1           2           3           4           5           6           7           8           9          10
 ........................................................................................................................
   1    9.998       9.234       8.425       7.548       6.596       5.565       4.410       3.093       1.612      4.7814E-03
   2    9.998       9.195       8.339       7.408       6.420       5.418       4.312       3.038       1.587      4.7085E-03
   3    9.998       9.123       8.170       7.105       5.998       5.101       4.121       2.937       1.545      4.5818E-03
   4    9.998       9.038       7.945       6.611       5.090       4.585       3.871       2.823       1.500      4.4490E-03
   5    9.997       8.990       7.783       6.050       2.976       3.999       3.693       2.761       1.479      4.3878E-03
   6    9.998       9.043       7.955       6.624       5.105       4.599       3.883       2.831       1.504      4.4618E-03
   7    9.998       9.135       8.193       7.137       6.033       5.135       4.150       2.957       1.555      4.6122E-03
   8    9.998       9.219       8.385       7.471       6.491       5.485       4.367       3.076       1.607      4.7660E-03
   9    9.998       9.277       8.508       7.662       6.725       5.687       4.508       3.160       1.646      4.8809E-03
  10    9.998       9.305       8.566       7.749       6.827       5.778       4.576       3.202       1.666      4.9403E-03
1
              HEAD IN LAYER   4 AT END OF TIME STEP  31 IN STRESS PERIOD    4
  ---------------------------------------------------------------------------

            1           2           3           4           5           6           7           8           9          10
 ........................................................................................................................
   1    9.998       9.232       8.422       7.543       6.591       5.559       4.404       3.089       1.609      4.8083E-03
   2    9.998       9.193       8.336       7.404       6.415       5.412       4.307       3.033       1.584      4.7348E-03
   3    9.998       9.121       8.166       7.100       5.992       5.095       4.116       2.932       1.542      4.6074E-03
   4    9.998       9.035       7.941       6.606       5.089       4.579       3.866       2.818       1.497      4.4736E-03
   5    9.997       8.988       7.779       6.049       3.148       3.999       3.687       2.756       1.476      4.4121E-03
   6    9.998       9.041       7.951       6.619       5.104       4.593       3.878       2.826       1.501      4.4866E-03
   7    9.998       9.133       8.190       7.132       6.028       5.129       4.144       2.952       1.552      4.6381E-03
   8    9.998       9.217       8.382       7.466       6.485       5.480       4.362       3.071       1.604      4.7931E-03
   9    9.998       9.275       8.505       7.658       6.720       5.682       4.503       3.155       1.642      4.9088E-03
  10    9.998       9.303       8.563       7.745       6.822       5.773       4.570       3.198       1.663      4.9687E-03

 HEAD WILL BE SAVED ON UNIT   51 AT END OF TIME STEP   31, STRESS PERIOD    4

 DRAWDOWN WILL BE SAVED ON UNIT   52 AT END OF TIME STEP   31, STRESS PERIOD    4
1
  VOLUMETRIC BUDGET FOR ENTIRE MODEL AT END OF TIME STEP   31, STRESS PERIOD   4
  ------------------------------------------------------------------------------

     CUMULATIVE VOLUMES      L**3       RATES FOR THIS TIME STEP      L**3/T
     ------------------                 ------------------------

           IN:                                      IN:
           ---                                      ---
             STORAGE =      477597.2188               STORAGE =         795.0112
       CONSTANT HEAD =           0.0000         CONSTANT HEAD =           0.0000
               WELLS =           0.0000                 WELLS =           0.0000
     HEAD DEP BOUNDS =       41761.1367       HEAD DEP BOUNDS =         499.9200

            TOTAL IN =      519358.3438              TOTAL IN =        1294.9312

          OUT:                                     OUT:
          ----                                     ----
             STORAGE =           0.0000               STORAGE =           0.0000
       CONSTANT HEAD =           0.0000         CONSTANT HEAD =           0.0000
               WELLS =       65500.0000                 WELLS =         500.0000
     HEAD DEP BOUNDS =      453860.2500       HEAD DEP BOUNDS =         794.9399

           TOTAL OUT =      519360.2500             TOTAL OUT =        1294.9399

            IN - OUT =          -1.9062              IN - OUT =      -8.7891E-03

 PERCENT DISCREPANCY =          -0.00     PERCENT DISCREPANCY =          -0.00






         TIME SUMMARY AT END OF TIME STEP   31 IN STRESS PERIOD    4
                    SECONDS     MINUTES      HOURS       DAYS        YEARS
                    -----------------------------------------------------------
   TIME STEP LENGTH  86400.      1440.0      24.000      1.0000     2.73785E-03
 STRESS PERIOD TIME 2.67840E+06  44640.      744.00      31.000     8.48734E-02
         TOTAL TIME 2.00448E+07 3.34080E+05  5568.0      232.00     0.63518    
1
 
 SOLVING FOR HEAD 

 OUTPUT CONTROL FOR STRESS PERIOD    4   TIME STEP   32
    SAVE HEAD FOR ALL LAYERS
    SAVE DRAWDOWN FOR ALL LAYERS
    SAVE BUDGET
    PRINT HEAD FOR ALL LAYERS
    PRINT BUDGET
 UBDSV1 SAVING "         STORAGE" ON UNIT  53 AT TIME STEP 32, STRESS PERIOD   4
 UBDSV2 SAVING "   CONSTANT HEAD" ON UNIT  53 AT TIME STEP 32, STRESS PERIOD   4
 UBDSV1 SAVING "FLOW RIGHT FACE " ON UNIT  53 AT TIME STEP 32, STRESS PERIOD   4
 UBDSV1 SAVING "FLOW FRONT FACE " ON UNIT  53 AT TIME STEP 32, STRESS PERIOD   4
 UBDSV1 SAVING "FLOW LOWER FACE " ON UNIT  53 AT TIME STEP 32, STRESS PERIOD   4
1
              HEAD IN LAYER   1 AT END OF TIME STEP  32 IN STRESS PERIOD    4
  ---------------------------------------------------------------------------

            1           2           3           4           5           6           7           8           9          10
 ........................................................................................................................
   1    9.998       9.239       8.434       7.559       6.609       5.578       4.423       3.105       1.621      2.2781E-03
   2    9.998       9.200       8.348       7.420       6.433       5.432       4.325       3.049       1.596      2.2409E-03
   3    9.998       9.128       8.179       7.117       6.011       5.114       4.134       2.948       1.553      2.1762E-03
   4    9.998       9.043       7.955       6.624       5.094       4.597       3.883       2.833       1.508      2.1089E-03
   5    9.998       8.996       7.794       6.058       2.171       3.997       3.704       2.771       1.487      2.0778E-03
   6    9.998       9.048       7.965       6.638       5.109       4.611       3.895       2.841       1.512      2.1153E-03
   7    9.998       9.140       8.202       7.149       6.047       5.148       4.162       2.968       1.563      2.1916E-03
   8    9.998       9.224       8.393       7.481       6.503       5.498       4.379       3.087       1.615      2.2700E-03
   9    9.998       9.281       8.515       7.672       6.737       5.699       4.520       3.171       1.654      2.3286E-03
  10    9.998       9.309       8.574       7.758       6.838       5.790       4.588       3.213       1.674      2.3590E-03
1
              HEAD IN LAYER   2 AT END OF TIME STEP  32 IN STRESS PERIOD    4
  ---------------------------------------------------------------------------

            1           2           3           4           5           6           7           8           9          10
 ........................................................................................................................
   1    9.998       9.233       8.424       7.546       6.594       5.563       4.409       3.094       1.614      4.4387E-03
   2    9.998       9.194       8.338       7.407       6.419       5.417       4.311       3.038       1.589      4.3704E-03
   3    9.998       9.122       8.169       7.104       5.996       5.099       4.120       2.937       1.546      4.2520E-03
   4    9.998       9.037       7.944       6.610       5.080       4.582       3.870       2.822       1.501      4.1278E-03
   5    9.997       8.990       7.782       6.043       2.600       3.987       3.691       2.761       1.480      4.0706E-03
   6    9.998       9.042       7.954       6.623       5.095       4.597       3.882       2.831       1.505      4.1398E-03
   7    9.998       9.135       8.192       7.136       6.032       5.133       4.149       2.957       1.556      4.2804E-03
   8    9.998       9.218       8.384       7.469       6.489       5.484       4.366       3.076       1.608      4.4244E-03
   9    9.998       9.276       8.507       7.661       6.724       5.686       4.507       3.160       1.647      4.5318E-03
  10    9.998       9.305       8.565       7.747       6.825       5.777       4.575       3.203       1.667      4.5875E-03
1
              HEAD IN LAYER   3 AT END OF TIME STEP  32 IN STRESS PERIOD    4
  ---------------------------------------------------------------------------

            1           2           3           4           5           6           7           8           9          10
 ........................................................................................................................
   1    9.998       9.230       8.418       7.537       6.583       5.552       4.398       3.084       1.607      4.7665E-03
   2    9.998       9.191       8.331       7.397       6.408       5.405       4.300       3.029       1.582      4.6933E-03
   3    9.998       9.118       8.162       7.094       5.984       5.087       4.109       2.928       1.540      4.5664E-03
   4    9.998       9.033       7.937       6.599       5.076       4.571       3.859       2.813       1.495      4.4333E-03
   5    9.997       8.985       7.774       6.038       2.961       3.984       3.680       2.751       1.474      4.3721E-03
   6    9.998       9.038       7.947       6.613       5.091       4.585       3.871       2.821       1.499      4.4464E-03
   7    9.998       9.131       8.185       7.126       6.021       5.122       4.138       2.948       1.550      4.5972E-03
   8    9.998       9.215       8.378       7.460       6.478       5.473       4.356       3.067       1.602      4.7517E-03
   9    9.998       9.273       8.501       7.652       6.714       5.675       4.497       3.151       1.641      4.8670E-03
  10    9.998       9.301       8.559       7.739       6.816       5.767       4.565       3.194       1.661      4.9267E-03
1
              HEAD IN LAYER   4 AT END OF TIME STEP  32 IN STRESS PERIOD    4
  ---------------------------------------------------------------------------

            1           2           3           4           5           6           7           8           9          10
 ........................................................................................................................
   1    9.998       9.228       8.414       7.533       6.578       5.546       4.393       3.079       1.604      4.7933E-03
   2    9.998       9.189       8.328       7.393       6.402       5.399       4.295       3.024       1.579      4.7197E-03
   3    9.998       9.116       8.158       7.089       5.979       5.081       4.104       2.923       1.536      4.5919E-03
   4    9.998       9.031       7.933       6.594       5.076       4.565       3.853       2.808       1.491      4.4579E-03
   5    9.997       8.983       7.770       6.037       3.134       3.985       3.675       2.747       1.471      4.3964E-03
   6    9.998       9.036       7.943       6.608       5.091       4.580       3.865       2.817       1.496      4.4712E-03
   7    9.998       9.129       8.182       7.121       6.015       5.116       4.132       2.943       1.547      4.6231E-03
   8    9.998       9.213       8.375       7.456       6.473       5.467       4.350       3.062       1.599      4.7787E-03
   9    9.998       9.271       8.498       7.648       6.709       5.670       4.492       3.147       1.638      4.8949E-03
  10    9.998       9.300       8.556       7.735       6.811       5.761       4.560       3.189       1.658      4.9551E-03

 HEAD WILL BE SAVED ON UNIT   51 AT END OF TIME STEP   32, STRESS PERIOD    4

 DRAWDOWN WILL BE SAVED ON UNIT   52 AT END OF TIME STEP   32, STRESS PERIOD    4
1
  VOLUMETRIC BUDGET FOR ENTIRE MODEL AT END OF TIME STEP   32, STRESS PERIOD   4
  ------------------------------------------------------------------------------

     CUMULATIVE VOLUMES      L**3       RATES FOR THIS TIME STEP      L**3/T
     ------------------                 ------------------------

           IN:                                      IN:
           ---                                      ---
             STORAGE =      478387.2188               STORAGE =         790.0080
       CONSTANT HEAD =           0.0000         CONSTANT HEAD =           0.0000
               WELLS =           0.0000                 WELLS =           0.0000
     HEAD DEP BOUNDS =       42263.4961       HEAD DEP BOUNDS =         502.3612

            TOTAL IN =      520650.7188              TOTAL IN =        1292.3691

          OUT:                                     OUT:
          ----                                     ----
             STORAGE =           0.0000               STORAGE =           0.0000
       CONSTANT HEAD =           0.0000         CONSTANT HEAD =           0.0000
               WELLS =       66000.0000                 WELLS =         500.0000
     HEAD DEP BOUNDS =      454652.6250       HEAD DEP BOUNDS =         792.3623

           TOTAL OUT =      520652.6250             TOTAL OUT =        1292.3623

            IN - OUT =          -1.9062              IN - OUT =       6.8359E-03

 PERCENT DISCREPANCY =          -0.00     PERCENT DISCREPANCY =           0.00






         TIME SUMMARY AT END OF TIME STEP   32 IN STRESS PERIOD    4
                    SECONDS     MINUTES      HOURS       DAYS        YEARS
                    -----------------------------------------------------------
   TIME STEP LENGTH  86400.      1440.0      24.000      1.0000     2.73785E-03
 STRESS PERIOD TIME 2.76480E+06  46080.      768.00      32.000     8.76112E-02
         TOTAL TIME 2.01312E+07 3.35520E+05  5592.0      233.00     0.63792    
1
 
 SOLVING FOR HEAD 

 OUTPUT CONTROL FOR STRESS PERIOD    4   TIME STEP   33
    SAVE HEAD FOR ALL LAYERS
    SAVE DRAWDOWN FOR ALL LAYERS
    SAVE BUDGET
    PRINT HEAD FOR ALL LAYERS
    PRINT BUDGET
 UBDSV1 SAVING "         STORAGE" ON UNIT  53 AT TIME STEP 33, STRESS PERIOD   4
 UBDSV2 SAVING "   CONSTANT HEAD" ON UNIT  53 AT TIME STEP 33, STRESS PERIOD   4
 UBDSV1 SAVING "FLOW RIGHT FACE " ON UNIT  53 AT TIME STEP 33, STRESS PERIOD   4
 UBDSV1 SAVING "FLOW FRONT FACE " ON UNIT  53 AT TIME STEP 33, STRESS PERIOD   4
 UBDSV1 SAVING "FLOW LOWER FACE " ON UNIT  53 AT TIME STEP 33, STRESS PERIOD   4
1
              HEAD IN LAYER   1 AT END OF TIME STEP  33 IN STRESS PERIOD    4
  ---------------------------------------------------------------------------

            1           2           3           4           5           6           7           8           9          10
 ........................................................................................................................
   1    9.998       9.235       8.426       7.548       6.596       5.565       4.411       3.095       1.615      2.2704E-03
   2    9.998       9.196       8.340       7.408       6.420       5.418       4.313       3.040       1.591      2.2331E-03
   3    9.998       9.123       8.171       7.106       5.998       5.101       4.122       2.939       1.548      2.1685E-03
   4    9.998       9.039       7.947       6.613       5.080       4.583       3.871       2.824       1.503      2.1008E-03
   5    9.998       8.991       7.785       6.047       2.156       3.983       3.691       2.762       1.482      2.0699E-03
   6    9.998       9.044       7.956       6.626       5.095       4.597       3.883       2.832       1.507      2.1074E-03
   7    9.998       9.136       8.194       7.138       6.034       5.135       4.150       2.959       1.558      2.1840E-03
   8    9.998       9.220       8.386       7.471       6.491       5.485       4.368       3.078       1.610      2.2625E-03
   9    9.998       9.277       8.508       7.662       6.725       5.687       4.509       3.162       1.649      2.3215E-03
  10    9.998       9.305       8.566       7.749       6.827       5.779       4.577       3.205       1.669      2.3520E-03
1
              HEAD IN LAYER   2 AT END OF TIME STEP  33 IN STRESS PERIOD    4
  ---------------------------------------------------------------------------

            1           2           3           4           5           6           7           8           9          10
 ........................................................................................................................
   1    9.998       9.229       8.416       7.535       6.582       5.550       4.397       3.085       1.608      4.4247E-03
   2    9.998       9.190       8.330       7.396       6.406       5.404       4.299       3.029       1.584      4.3563E-03
   3    9.998       9.118       8.161       7.092       5.983       5.086       4.108       2.928       1.541      4.2376E-03
   4    9.998       9.033       7.936       6.598       5.067       4.569       3.857       2.813       1.496      4.1132E-03
   5    9.997       8.985       7.774       6.032       2.586       3.973       3.678       2.751       1.475      4.0559E-03
   6    9.998       9.038       7.946       6.612       5.082       4.583       3.869       2.821       1.500      4.1254E-03
   7    9.998       9.130       8.184       7.125       6.019       5.120       4.137       2.948       1.551      4.2665E-03
   8    9.998       9.215       8.377       7.459       6.477       5.471       4.355       3.067       1.603      4.4109E-03
   9    9.998       9.272       8.500       7.651       6.712       5.674       4.497       3.152       1.642      4.5189E-03
  10    9.998       9.301       8.558       7.738       6.814       5.765       4.564       3.194       1.663      4.5748E-03
1
              HEAD IN LAYER   3 AT END OF TIME STEP  33 IN STRESS PERIOD    4
  ---------------------------------------------------------------------------

            1           2           3           4           5           6           7           8           9          10
 ........................................................................................................................
   1    9.998       9.226       8.410       7.526       6.571       5.539       4.386       3.075       1.602      4.7516E-03
   2    9.998       9.187       8.323       7.386       6.395       5.392       4.288       3.019       1.577      4.6783E-03
   3    9.998       9.114       8.153       7.082       5.971       5.074       4.097       2.918       1.534      4.5511E-03
   4    9.998       9.029       7.928       6.588       5.062       4.557       3.846       2.803       1.489      4.4178E-03
   5    9.997       8.981       7.766       6.027       2.947       3.970       3.668       2.742       1.469      4.3565E-03
   6    9.998       9.034       7.938       6.601       5.078       4.572       3.858       2.812       1.494      4.4311E-03
   7    9.998       9.127       8.178       7.115       6.008       5.109       4.126       2.939       1.545      4.5824E-03
   8    9.998       9.211       8.370       7.450       6.466       5.460       4.344       3.058       1.597      4.7374E-03
   9    9.998       9.269       8.494       7.643       6.702       5.663       4.486       3.143       1.636      4.8533E-03
  10    9.998       9.298       8.552       7.729       6.804       5.755       4.554       3.186       1.656      4.9133E-03
1
              HEAD IN LAYER   4 AT END OF TIME STEP  33 IN STRESS PERIOD    4
  ---------------------------------------------------------------------------

            1           2           3           4           5           6           7           8           9          10
 ........................................................................................................................
   1    9.998       9.224       8.406       7.522       6.565       5.533       4.381       3.070       1.599      4.7784E-03
   2    9.998       9.185       8.320       7.382       6.389       5.386       4.283       3.015       1.574      4.7046E-03
   3    9.998       9.112       8.150       7.078       5.966       5.068       4.091       2.914       1.531      4.5765E-03
   4    9.998       9.027       7.925       6.583       5.062       4.551       3.841       2.799       1.486      4.4423E-03
   5    9.997       8.979       7.762       6.026       3.119       3.971       3.662       2.737       1.466      4.3807E-03
   6    9.998       9.032       7.935       6.596       5.078       4.566       3.853       2.807       1.491      4.4558E-03
   7    9.998       9.125       8.174       7.110       6.002       5.103       4.121       2.934       1.542      4.6082E-03
   8    9.998       9.209       8.367       7.446       6.461       5.455       4.339       3.054       1.594      4.7643E-03
   9    9.998       9.267       8.491       7.638       6.697       5.658       4.481       3.139       1.633      4.8811E-03
  10    9.998       9.296       8.549       7.725       6.799       5.750       4.549       3.181       1.653      4.9416E-03

 HEAD WILL BE SAVED ON UNIT   51 AT END OF TIME STEP   33, STRESS PERIOD    4

 DRAWDOWN WILL BE SAVED ON UNIT   52 AT END OF TIME STEP   33, STRESS PERIOD    4
1
  VOLUMETRIC BUDGET FOR ENTIRE MODEL AT END OF TIME STEP   33, STRESS PERIOD   4
  ------------------------------------------------------------------------------

     CUMULATIVE VOLUMES      L**3       RATES FOR THIS TIME STEP      L**3/T
     ------------------                 ------------------------

           IN:                                      IN:
           ---                                      ---
             STORAGE =      479172.2500               STORAGE =         785.0325
       CONSTANT HEAD =           0.0000         CONSTANT HEAD =           0.0000
               WELLS =           0.0000                 WELLS =           0.0000
     HEAD DEP BOUNDS =       42768.2500       HEAD DEP BOUNDS =         504.7540

            TOTAL IN =      521940.5000              TOTAL IN =        1289.7865

          OUT:                                     OUT:
          ----                                     ----
             STORAGE =           0.0000               STORAGE =           0.0000
       CONSTANT HEAD =           0.0000         CONSTANT HEAD =           0.0000
               WELLS =       66500.0000                 WELLS =         500.0000
     HEAD DEP BOUNDS =      455442.4375       HEAD DEP BOUNDS =         789.8037

           TOTAL OUT =      521942.4375             TOTAL OUT =        1289.8037

            IN - OUT =          -1.9375              IN - OUT =      -1.7212E-02

 PERCENT DISCREPANCY =          -0.00     PERCENT DISCREPANCY =          -0.00






         TIME SUMMARY AT END OF TIME STEP   33 IN STRESS PERIOD    4
                    SECONDS     MINUTES      HOURS       DAYS        YEARS
                    -----------------------------------------------------------
   TIME STEP LENGTH  86400.      1440.0      24.000      1.0000     2.73785E-03
 STRESS PERIOD TIME 2.85120E+06  47520.      792.00      33.000     9.03491E-02
         TOTAL TIME 2.02176E+07 3.36960E+05  5616.0      234.00     0.64066    
1
 
 SOLVING FOR HEAD 

 OUTPUT CONTROL FOR STRESS PERIOD    4   TIME STEP   34
    SAVE HEAD FOR ALL LAYERS
    SAVE DRAWDOWN FOR ALL LAYERS
    SAVE BUDGET
    PRINT HEAD FOR ALL LAYERS
    PRINT BUDGET
 UBDSV1 SAVING "         STORAGE" ON UNIT  53 AT TIME STEP 34, STRESS PERIOD   4
 UBDSV2 SAVING "   CONSTANT HEAD" ON UNIT  53 AT TIME STEP 34, STRESS PERIOD   4
 UBDSV1 SAVING "FLOW RIGHT FACE " ON UNIT  53 AT TIME STEP 34, STRESS PERIOD   4
 UBDSV1 SAVING "FLOW FRONT FACE " ON UNIT  53 AT TIME STEP 34, STRESS PERIOD   4
 UBDSV1 SAVING "FLOW LOWER FACE " ON UNIT  53 AT TIME STEP 34, STRESS PERIOD   4
1
              HEAD IN LAYER   1 AT END OF TIME STEP  34 IN STRESS PERIOD    4
  ---------------------------------------------------------------------------

            1           2           3           4           5           6           7           8           9          10
 ........................................................................................................................
   1    9.998       9.230       8.418       7.537       6.583       5.552       4.399       3.086       1.610      2.2628E-03
   2    9.998       9.191       8.332       7.397       6.408       5.405       4.301       3.030       1.586      2.2254E-03
   3    9.998       9.119       8.162       7.094       5.985       5.087       4.109       2.929       1.542      2.1607E-03
   4    9.998       9.035       7.938       6.601       5.066       4.569       3.858       2.814       1.497      2.0930E-03
   5    9.998       8.987       7.777       6.035       2.141       3.969       3.679       2.752       1.476      2.0619E-03
   6    9.998       9.040       7.948       6.615       5.082       4.584       3.870       2.823       1.502      2.0996E-03
   7    9.998       9.132       8.186       7.127       6.021       5.122       4.138       2.949       1.553      2.1763E-03
   8    9.998       9.216       8.378       7.461       6.479       5.473       4.357       3.069       1.605      2.2551E-03
   9    9.998       9.273       8.501       7.652       6.714       5.675       4.498       3.154       1.645      2.3143E-03
  10    9.998       9.302       8.559       7.739       6.816       5.767       4.566       3.196       1.665      2.3450E-03
1
              HEAD IN LAYER   2 AT END OF TIME STEP  34 IN STRESS PERIOD    4
  ---------------------------------------------------------------------------

            1           2           3           4           5           6           7           8           9          10
 ........................................................................................................................
   1    9.998       9.225       8.408       7.525       6.569       5.537       4.386       3.075       1.603      4.4109E-03
   2    9.998       9.186       8.322       7.385       6.393       5.390       4.288       3.020       1.579      4.3423E-03
   3    9.998       9.114       8.152       7.081       5.970       5.072       4.096       2.918       1.536      4.2233E-03
   4    9.998       9.029       7.928       6.587       5.053       4.555       3.845       2.803       1.490      4.0987E-03
   5    9.997       8.981       7.766       6.020       2.571       3.959       3.666       2.742       1.470      4.0414E-03
   6    9.998       9.034       7.938       6.601       5.069       4.570       3.857       2.812       1.495      4.1111E-03
   7    9.998       9.126       8.177       7.114       6.006       5.107       4.125       2.939       1.546      4.2526E-03
   8    9.998       9.211       8.369       7.449       6.465       5.459       4.344       3.059       1.599      4.3976E-03
   9    9.998       9.269       8.493       7.641       6.701       5.662       4.486       3.144       1.638      4.5060E-03
  10    9.998       9.297       8.551       7.728       6.803       5.754       4.554       3.186       1.658      4.5622E-03
1
              HEAD IN LAYER   3 AT END OF TIME STEP  34 IN STRESS PERIOD    4
  ---------------------------------------------------------------------------

            1           2           3           4           5           6           7           8           9          10
 ........................................................................................................................
   1    9.998       9.222       8.402       7.516       6.558       5.526       4.375       3.066       1.597      4.7369E-03
   2    9.998       9.183       8.316       7.375       6.382       5.379       4.276       3.010       1.572      4.6633E-03
   3    9.998       9.110       8.145       7.071       5.958       5.060       4.085       2.909       1.529      4.5359E-03
   4    9.998       9.025       7.920       6.576       5.049       4.543       3.834       2.794       1.484      4.4023E-03
   5    9.997       8.977       7.758       6.015       2.932       3.957       3.655       2.732       1.463      4.3411E-03
   6    9.998       9.030       7.930       6.590       5.065       4.558       3.846       2.803       1.489      4.4158E-03
   7    9.998       9.123       8.170       7.104       5.995       5.096       4.114       2.930       1.540      4.5676E-03
   8    9.998       9.207       8.363       7.440       6.454       5.448       4.333       3.050       1.592      4.7232E-03
   9    9.998       9.265       8.487       7.633       6.691       5.651       4.475       3.135       1.632      4.8396E-03
  10    9.998       9.294       8.545       7.720       6.793       5.743       4.544       3.178       1.652      4.8998E-03
1
              HEAD IN LAYER   4 AT END OF TIME STEP  34 IN STRESS PERIOD    4
  ---------------------------------------------------------------------------

            1           2           3           4           5           6           7           8           9          10
 ........................................................................................................................
   1    9.998       9.220       8.399       7.511       6.553       5.520       4.369       3.061       1.594      4.7636E-03
   2    9.998       9.181       8.312       7.371       6.376       5.373       4.271       3.006       1.569      4.6896E-03
   3    9.998       9.108       8.142       7.066       5.953       5.054       4.079       2.904       1.526      4.5612E-03
   4    9.998       9.023       7.916       6.571       5.049       4.538       3.828       2.789       1.481      4.4269E-03
   5    9.997       8.975       7.754       6.014       3.105       3.957       3.650       2.728       1.460      4.3652E-03
   6    9.998       9.028       7.927       6.585       5.064       4.553       3.841       2.798       1.486      4.4405E-03
   7    9.998       9.121       8.166       7.100       5.990       5.090       4.109       2.925       1.537      4.5934E-03
   8    9.998       9.206       8.360       7.435       6.449       5.442       4.328       3.045       1.589      4.7501E-03
   9    9.998       9.264       8.484       7.629       6.686       5.646       4.470       3.130       1.629      4.8673E-03
  10    9.998       9.292       8.542       7.716       6.788       5.738       4.539       3.173       1.649      4.9281E-03

 HEAD WILL BE SAVED ON UNIT   51 AT END OF TIME STEP   34, STRESS PERIOD    4

 DRAWDOWN WILL BE SAVED ON UNIT   52 AT END OF TIME STEP   34, STRESS PERIOD    4
1
  VOLUMETRIC BUDGET FOR ENTIRE MODEL AT END OF TIME STEP   34, STRESS PERIOD   4
  ------------------------------------------------------------------------------

     CUMULATIVE VOLUMES      L**3       RATES FOR THIS TIME STEP      L**3/T
     ------------------                 ------------------------

           IN:                                      IN:
           ---                                      ---
             STORAGE =      479952.3438               STORAGE =         780.1000
       CONSTANT HEAD =           0.0000         CONSTANT HEAD =           0.0000
               WELLS =           0.0000                 WELLS =           0.0000
     HEAD DEP BOUNDS =       43275.4023       HEAD DEP BOUNDS =         507.1525

            TOTAL IN =      523227.7500              TOTAL IN =        1287.2524

          OUT:                                     OUT:
          ----                                     ----
             STORAGE =           0.0000               STORAGE =           0.0000
       CONSTANT HEAD =           0.0000         CONSTANT HEAD =           0.0000
               WELLS =       67000.0000                 WELLS =         500.0000
     HEAD DEP BOUNDS =      456229.6875       HEAD DEP BOUNDS =         787.2590

           TOTAL OUT =      523229.6875             TOTAL OUT =        1287.2590

            IN - OUT =          -1.9375              IN - OUT =      -6.5918E-03

 PERCENT DISCREPANCY =          -0.00     PERCENT DISCREPANCY =          -0.00






         TIME SUMMARY AT END OF TIME STEP   34 IN STRESS PERIOD    4
                    SECONDS     MINUTES      HOURS       DAYS        YEARS
                    -----------------------------------------------------------
   TIME STEP LENGTH  86400.      1440.0      24.000      1.0000     2.73785E-03
 STRESS PERIOD TIME 2.93760E+06  48960.      816.00      34.000     9.30869E-02
         TOTAL TIME 2.03040E+07 3.38400E+05  5640.0      235.00     0.64339    
1
 
 SOLVING FOR HEAD 

 OUTPUT CONTROL FOR STRESS PERIOD    4   TIME STEP   35
    SAVE HEAD FOR ALL LAYERS
    SAVE DRAWDOWN FOR ALL LAYERS
    SAVE BUDGET
    PRINT HEAD FOR ALL LAYERS
    PRINT BUDGET
 UBDSV1 SAVING "         STORAGE" ON UNIT  53 AT TIME STEP 35, STRESS PERIOD   4
 UBDSV2 SAVING "   CONSTANT HEAD" ON UNIT  53 AT TIME STEP 35, STRESS PERIOD   4
 UBDSV1 SAVING "FLOW RIGHT FACE " ON UNIT  53 AT TIME STEP 35, STRESS PERIOD   4
 UBDSV1 SAVING "FLOW FRONT FACE " ON UNIT  53 AT TIME STEP 35, STRESS PERIOD   4
 UBDSV1 SAVING "FLOW LOWER FACE " ON UNIT  53 AT TIME STEP 35, STRESS PERIOD   4
1
              HEAD IN LAYER   1 AT END OF TIME STEP  35 IN STRESS PERIOD    4
  ---------------------------------------------------------------------------

            1           2           3           4           5           6           7           8           9          10
 ........................................................................................................................
   1    9.998       9.226       8.410       7.526       6.571       5.539       4.387       3.077       1.605      2.2552E-03
   2    9.998       9.187       8.324       7.386       6.395       5.392       4.289       3.021       1.581      2.2178E-03
   3    9.998       9.115       8.154       7.083       5.972       5.073       4.097       2.920       1.537      2.1530E-03
   4    9.998       9.030       7.930       6.590       5.053       4.555       3.846       2.804       1.492      2.0853E-03
   5    9.998       8.983       7.769       6.023       2.127       3.955       3.666       2.743       1.471      2.0540E-03
   6    9.998       9.036       7.940       6.603       5.068       4.570       3.858       2.813       1.497      2.0919E-03
   7    9.998       9.128       8.178       7.116       6.008       5.109       4.126       2.940       1.548      2.1689E-03
   8    9.998       9.212       8.371       7.450       6.467       5.460       4.345       3.060       1.601      2.2481E-03
   9    9.998       9.270       8.494       7.643       6.702       5.663       4.487       3.145       1.640      2.3073E-03
  10    9.998       9.298       8.552       7.729       6.804       5.755       4.556       3.188       1.660      2.3381E-03
1
              HEAD IN LAYER   2 AT END OF TIME STEP  35 IN STRESS PERIOD    4
  ---------------------------------------------------------------------------

            1           2           3           4           5           6           7           8           9          10
 ........................................................................................................................
   1    9.998       9.221       8.401       7.514       6.556       5.525       4.374       3.066       1.598      4.3971E-03
   2    9.998       9.182       8.314       7.374       6.380       5.377       4.276       3.011       1.574      4.3283E-03
   3    9.998       9.109       8.144       7.070       5.957       5.059       4.084       2.909       1.530      4.2091E-03
   4    9.998       9.024       7.919       6.575       5.040       4.541       3.833       2.794       1.485      4.0843E-03
   5    9.997       8.977       7.757       6.008       2.557       3.945       3.653       2.732       1.464      4.0270E-03
   6    9.998       9.030       7.930       6.589       5.055       4.556       3.845       2.803       1.490      4.0969E-03
   7    9.998       9.122       8.169       7.103       5.994       5.094       4.113       2.930       1.541      4.2389E-03
   8    9.998       9.207       8.362       7.438       6.453       5.447       4.333       3.050       1.594      4.3844E-03
   9    9.998       9.265       8.485       7.631       6.689       5.650       4.475       3.135       1.633      4.4932E-03
  10    9.998       9.294       8.544       7.718       6.791       5.742       4.543       3.178       1.654      4.5497E-03
1
              HEAD IN LAYER   3 AT END OF TIME STEP  35 IN STRESS PERIOD    4
  ---------------------------------------------------------------------------

            1           2           3           4           5           6           7           8           9          10
 ........................................................................................................................
   1    9.998       9.218       8.394       7.505       6.546       5.513       4.363       3.057       1.592      4.7222E-03
   2    9.998       9.178       8.308       7.365       6.369       5.366       4.265       3.001       1.567      4.6485E-03
   3    9.998       9.106       8.137       7.060       5.945       5.047       4.073       2.900       1.524      4.5207E-03
   4    9.998       9.020       7.912       6.565       5.035       4.530       3.822       2.785       1.479      4.3870E-03
   5    9.997       8.973       7.749       6.003       2.918       3.943       3.643       2.723       1.458      4.3257E-03
   6    9.998       9.026       7.922       6.579       5.051       4.545       3.834       2.794       1.484      4.4007E-03
   7    9.998       9.119       8.162       7.094       5.983       5.083       4.103       2.921       1.535      4.5530E-03
   8    9.998       9.203       8.355       7.430       6.442       5.436       4.322       3.041       1.588      4.7091E-03
   9    9.998       9.262       8.479       7.623       6.679       5.639       4.465       3.126       1.627      4.8259E-03
  10    9.998       9.290       8.538       7.710       6.782       5.732       4.533       3.169       1.647      4.8865E-03
1
              HEAD IN LAYER   4 AT END OF TIME STEP  35 IN STRESS PERIOD    4
  ---------------------------------------------------------------------------

            1           2           3           4           5           6           7           8           9          10
 ........................................................................................................................
   1    9.998       9.216       8.391       7.500       6.540       5.508       4.358       3.053       1.589      4.7489E-03
   2    9.998       9.177       8.304       7.360       6.364       5.360       4.259       2.997       1.564      4.6747E-03
   3    9.998       9.104       8.134       7.055       5.940       5.041       4.067       2.895       1.521      4.5461E-03
   4    9.998       9.018       7.908       6.560       5.035       4.524       3.816       2.780       1.476      4.4115E-03
   5    9.997       8.970       7.746       6.003       3.091       3.943       3.638       2.718       1.455      4.3498E-03
   6    9.998       9.024       7.919       6.574       5.051       4.539       3.829       2.789       1.481      4.4254E-03
   7    9.998       9.117       8.159       7.089       5.977       5.077       4.097       2.916       1.532      4.5787E-03
   8    9.998       9.202       8.352       7.425       6.437       5.430       4.317       3.037       1.585      4.7360E-03
   9    9.998       9.260       8.476       7.619       6.674       5.634       4.460       3.122       1.624      4.8537E-03
  10    9.998       9.289       8.536       7.706       6.777       5.727       4.528       3.165       1.644      4.9147E-03

 HEAD WILL BE SAVED ON UNIT   51 AT END OF TIME STEP   35, STRESS PERIOD    4

 DRAWDOWN WILL BE SAVED ON UNIT   52 AT END OF TIME STEP   35, STRESS PERIOD    4
1
  VOLUMETRIC BUDGET FOR ENTIRE MODEL AT END OF TIME STEP   35, STRESS PERIOD   4
  ------------------------------------------------------------------------------

     CUMULATIVE VOLUMES      L**3       RATES FOR THIS TIME STEP      L**3/T
     ------------------                 ------------------------

           IN:                                      IN:
           ---                                      ---
             STORAGE =      480727.5312               STORAGE =         775.1934
       CONSTANT HEAD =           0.0000         CONSTANT HEAD =           0.0000
               WELLS =           0.0000                 WELLS =           0.0000
     HEAD DEP BOUNDS =       43784.9492       HEAD DEP BOUNDS =         509.5473

            TOTAL IN =      524512.5000              TOTAL IN =        1284.7407

          OUT:                                     OUT:
          ----                                     ----
             STORAGE =           0.0000               STORAGE =           0.0000
       CONSTANT HEAD =           0.0000         CONSTANT HEAD =           0.0000
               WELLS =       67500.0000                 WELLS =         500.0000
     HEAD DEP BOUNDS =      457014.4375       HEAD DEP BOUNDS =         784.7364

           TOTAL OUT =      524514.4375             TOTAL OUT =        1284.7363

            IN - OUT =          -1.9375              IN - OUT =       4.3945E-03

 PERCENT DISCREPANCY =          -0.00     PERCENT DISCREPANCY =           0.00






         TIME SUMMARY AT END OF TIME STEP   35 IN STRESS PERIOD    4
                    SECONDS     MINUTES      HOURS       DAYS        YEARS
                    -----------------------------------------------------------
   TIME STEP LENGTH  86400.      1440.0      24.000      1.0000     2.73785E-03
 STRESS PERIOD TIME 3.02400E+06  50400.      840.00      35.000     9.58248E-02
         TOTAL TIME 2.03904E+07 3.39840E+05  5664.0      236.00     0.64613    
1
 
 SOLVING FOR HEAD 

 OUTPUT CONTROL FOR STRESS PERIOD    4   TIME STEP   36
    SAVE HEAD FOR ALL LAYERS
    SAVE DRAWDOWN FOR ALL LAYERS
    SAVE BUDGET
    PRINT HEAD FOR ALL LAYERS
    PRINT BUDGET
 UBDSV1 SAVING "         STORAGE" ON UNIT  53 AT TIME STEP 36, STRESS PERIOD   4
 UBDSV2 SAVING "   CONSTANT HEAD" ON UNIT  53 AT TIME STEP 36, STRESS PERIOD   4
 UBDSV1 SAVING "FLOW RIGHT FACE " ON UNIT  53 AT TIME STEP 36, STRESS PERIOD   4
 UBDSV1 SAVING "FLOW FRONT FACE " ON UNIT  53 AT TIME STEP 36, STRESS PERIOD   4
 UBDSV1 SAVING "FLOW LOWER FACE " ON UNIT  53 AT TIME STEP 36, STRESS PERIOD   4
1
              HEAD IN LAYER   1 AT END OF TIME STEP  36 IN STRESS PERIOD    4
  ---------------------------------------------------------------------------

            1           2           3           4           5           6           7           8           9          10
 ........................................................................................................................
   1    9.998       9.222       8.402       7.516       6.558       5.526       4.376       3.068       1.600      2.2478E-03
   2    9.998       9.183       8.316       7.376       6.382       5.379       4.277       3.012       1.575      2.2101E-03
   3    9.998       9.111       8.146       7.072       5.959       5.060       4.085       2.911       1.532      2.1452E-03
   4    9.998       9.026       7.922       6.578       5.039       4.542       3.833       2.795       1.487      2.0775E-03
   5    9.998       8.978       7.760       6.012       2.113       3.941       3.654       2.733       1.466      2.0464E-03
   6    9.998       9.031       7.932       6.592       5.055       4.557       3.846       2.804       1.491      2.0844E-03
   7    9.998       9.124       8.171       7.105       5.996       5.096       4.115       2.931       1.543      2.1614E-03
   8    9.998       9.208       8.363       7.440       6.455       5.448       4.334       3.052       1.596      2.2408E-03
   9    9.998       9.266       8.487       7.633       6.691       5.652       4.477       3.137       1.635      2.3002E-03
  10    9.998       9.294       8.545       7.720       6.793       5.744       4.545       3.180       1.656      2.3314E-03
1
              HEAD IN LAYER   2 AT END OF TIME STEP  36 IN STRESS PERIOD    4
  ---------------------------------------------------------------------------

            1           2           3           4           5           6           7           8           9          10
 ........................................................................................................................
   1    9.998       9.217       8.393       7.503       6.544       5.512       4.362       3.058       1.594      4.3834E-03
   2    9.998       9.178       8.307       7.363       6.368       5.364       4.264       3.001       1.569      4.3144E-03
   3    9.998       9.105       8.136       7.059       5.944       5.045       4.072       2.900       1.525      4.1950E-03
   4    9.998       9.020       7.911       6.564       5.026       4.527       3.820       2.785       1.480      4.0700E-03
   5    9.997       8.972       7.749       5.997       2.542       3.931       3.641       2.723       1.459      4.0127E-03
   6    9.998       9.026       7.922       6.578       5.042       4.543       3.833       2.793       1.485      4.0829E-03
   7    9.998       9.118       8.161       7.093       5.981       5.082       4.102       2.921       1.536      4.2252E-03
   8    9.998       9.203       8.354       7.428       6.441       5.434       4.321       3.041       1.589      4.3712E-03
   9    9.998       9.261       8.478       7.621       6.678       5.638       4.464       3.127       1.629      4.4805E-03
  10    9.998       9.290       8.537       7.709       6.780       5.731       4.533       3.170       1.649      4.5372E-03
1
              HEAD IN LAYER   3 AT END OF TIME STEP  36 IN STRESS PERIOD    4
  ---------------------------------------------------------------------------

            1           2           3           4           5           6           7           8           9          10
 ........................................................................................................................
   1    9.998       9.214       8.386       7.494       6.533       5.500       4.351       3.048       1.587      4.7076E-03
   2    9.998       9.174       8.300       7.354       6.357       5.353       4.253       2.992       1.562      4.6337E-03
   3    9.998       9.102       8.129       7.049       5.932       5.034       4.061       2.891       1.519      4.5057E-03
   4    9.998       9.016       7.904       6.554       5.022       4.516       3.809       2.775       1.474      4.3718E-03
   5    9.997       8.968       7.741       5.992       2.904       3.929       3.631       2.714       1.453      4.3105E-03
   6    9.998       9.022       7.914       6.568       5.038       4.531       3.822       2.784       1.479      4.3857E-03
   7    9.998       9.115       8.154       7.083       5.970       5.070       4.091       2.912       1.530      4.5384E-03
   8    9.998       9.200       8.348       7.420       6.431       5.423       4.311       3.033       1.583      4.6951E-03
   9    9.998       9.258       8.472       7.613       6.668       5.628       4.454       3.118       1.623      4.8124E-03
  10    9.998       9.287       8.532       7.701       6.771       5.720       4.523       3.161       1.643      4.8733E-03
1
              HEAD IN LAYER   4 AT END OF TIME STEP  36 IN STRESS PERIOD    4
  ---------------------------------------------------------------------------

            1           2           3           4           5           6           7           8           9          10
 ........................................................................................................................
   1    9.998       9.212       8.383       7.490       6.528       5.495       4.346       3.044       1.584      4.7342E-03
   2    9.998       9.173       8.297       7.349       6.351       5.347       4.248       2.988       1.559      4.6598E-03
   3    9.998       9.100       8.126       7.044       5.927       5.028       4.055       2.886       1.516      4.5310E-03
   4    9.998       9.014       7.900       6.549       5.022       4.511       3.804       2.771       1.471      4.3962E-03
   5    9.997       8.966       7.737       5.991       3.077       3.930       3.625       2.709       1.450      4.3345E-03
   6    9.998       9.020       7.911       6.563       5.038       4.526       3.817       2.780       1.476      4.4103E-03
   7    9.998       9.113       8.151       7.078       5.965       5.065       4.086       2.907       1.527      4.5641E-03
   8    9.998       9.198       8.345       7.415       6.425       5.418       4.306       3.028       1.580      4.7219E-03
   9    9.998       9.256       8.469       7.609       6.663       5.622       4.449       3.114       1.619      4.8401E-03
  10    9.998       9.285       8.529       7.697       6.766       5.715       4.518       3.157       1.640      4.9014E-03

 HEAD WILL BE SAVED ON UNIT   51 AT END OF TIME STEP   36, STRESS PERIOD    4

 DRAWDOWN WILL BE SAVED ON UNIT   52 AT END OF TIME STEP   36, STRESS PERIOD    4
1
  VOLUMETRIC BUDGET FOR ENTIRE MODEL AT END OF TIME STEP   36, STRESS PERIOD   4
  ------------------------------------------------------------------------------

     CUMULATIVE VOLUMES      L**3       RATES FOR THIS TIME STEP      L**3/T
     ------------------                 ------------------------

           IN:                                      IN:
           ---                                      ---
             STORAGE =      481497.8438               STORAGE =         770.3171
       CONSTANT HEAD =           0.0000         CONSTANT HEAD =           0.0000
               WELLS =           0.0000                 WELLS =           0.0000
     HEAD DEP BOUNDS =       44296.8516       HEAD DEP BOUNDS =         511.9006

            TOTAL IN =      525794.6875              TOTAL IN =        1282.2178

          OUT:                                     OUT:
          ----                                     ----
             STORAGE =           0.0000               STORAGE =           0.0000
       CONSTANT HEAD =           0.0000         CONSTANT HEAD =           0.0000
               WELLS =       68000.0000                 WELLS =         500.0000
     HEAD DEP BOUNDS =      457796.6562       HEAD DEP BOUNDS =         782.2288

           TOTAL OUT =      525796.6250             TOTAL OUT =        1282.2288

            IN - OUT =          -1.9375              IN - OUT =      -1.0986E-02

 PERCENT DISCREPANCY =          -0.00     PERCENT DISCREPANCY =          -0.00






         TIME SUMMARY AT END OF TIME STEP   36 IN STRESS PERIOD    4
                    SECONDS     MINUTES      HOURS       DAYS        YEARS
                    -----------------------------------------------------------
   TIME STEP LENGTH  86400.      1440.0      24.000      1.0000     2.73785E-03
 STRESS PERIOD TIME 3.11040E+06  51840.      864.00      36.000     9.85626E-02
         TOTAL TIME 2.04768E+07 3.41280E+05  5688.0      237.00     0.64887    
1
 
 SOLVING FOR HEAD 

 OUTPUT CONTROL FOR STRESS PERIOD    4   TIME STEP   37
    SAVE HEAD FOR ALL LAYERS
    SAVE DRAWDOWN FOR ALL LAYERS
    SAVE BUDGET
    PRINT HEAD FOR ALL LAYERS
    PRINT BUDGET
 UBDSV1 SAVING "         STORAGE" ON UNIT  53 AT TIME STEP 37, STRESS PERIOD   4
 UBDSV2 SAVING "   CONSTANT HEAD" ON UNIT  53 AT TIME STEP 37, STRESS PERIOD   4
 UBDSV1 SAVING "FLOW RIGHT FACE " ON UNIT  53 AT TIME STEP 37, STRESS PERIOD   4
 UBDSV1 SAVING "FLOW FRONT FACE " ON UNIT  53 AT TIME STEP 37, STRESS PERIOD   4
 UBDSV1 SAVING "FLOW LOWER FACE " ON UNIT  53 AT TIME STEP 37, STRESS PERIOD   4
1
              HEAD IN LAYER   1 AT END OF TIME STEP  37 IN STRESS PERIOD    4
  ---------------------------------------------------------------------------

            1           2           3           4           5           6           7           8           9          10
 ........................................................................................................................
   1    9.998       9.218       8.394       7.505       6.546       5.513       4.364       3.059       1.595      2.2403E-03
   2    9.998       9.179       8.308       7.365       6.369       5.366       4.265       3.003       1.570      2.2026E-03
   3    9.998       9.107       8.138       7.061       5.946       5.047       4.073       2.901       1.527      2.1374E-03
   4    9.998       9.022       7.914       6.567       5.026       4.528       3.821       2.786       1.482      2.0696E-03
   5    9.998       8.974       7.752       6.000       2.098       3.927       3.641       2.724       1.461      2.0386E-03
   6    9.998       9.027       7.924       6.581       5.042       4.543       3.834       2.795       1.486      2.0767E-03
   7    9.998       9.120       8.163       7.095       5.983       5.083       4.103       2.922       1.538      2.1539E-03
   8    9.998       9.204       8.356       7.430       6.443       5.436       4.323       3.043       1.591      2.2337E-03
   9    9.998       9.262       8.480       7.623       6.679       5.640       4.466       3.129       1.631      2.2933E-03
  10    9.998       9.291       8.539       7.710       6.782       5.732       4.535       3.172       1.651      2.3246E-03
1
              HEAD IN LAYER   2 AT END OF TIME STEP  37 IN STRESS PERIOD    4
  ---------------------------------------------------------------------------

            1           2           3           4           5           6           7           8           9          10
 ........................................................................................................................
   1    9.998       9.213       8.385       7.493       6.532       5.499       4.351       3.049       1.589      4.3698E-03
   2    9.998       9.174       8.299       7.352       6.355       5.351       4.252       2.992       1.564      4.3007E-03
   3    9.998       9.101       8.128       7.048       5.931       5.032       4.060       2.891       1.520      4.1810E-03
   4    9.998       9.016       7.903       6.553       5.013       4.514       3.808       2.775       1.475      4.0558E-03
   5    9.997       8.968       7.741       5.986       2.528       3.917       3.629       2.713       1.454      3.9985E-03
   6    9.998       9.022       7.914       6.567       5.029       4.529       3.821       2.784       1.480      4.0689E-03
   7    9.998       9.114       8.154       7.082       5.969       5.069       4.090       2.912       1.531      4.2116E-03
   8    9.998       9.199       8.347       7.418       6.429       5.422       4.310       3.033       1.584      4.3582E-03
   9    9.998       9.257       8.471       7.612       6.666       5.626       4.453       3.119       1.624      4.4679E-03
  10    9.998       9.286       8.530       7.699       6.769       5.719       4.522       3.162       1.645      4.5249E-03
1
              HEAD IN LAYER   3 AT END OF TIME STEP  37 IN STRESS PERIOD    4
  ---------------------------------------------------------------------------

            1           2           3           4           5           6           7           8           9          10
 ........................................................................................................................
   1    9.998       9.210       8.379       7.484       6.521       5.488       4.340       3.039       1.582      4.6931E-03
   2    9.998       9.170       8.292       7.343       6.344       5.340       4.241       2.983       1.557      4.6191E-03
   3    9.998       9.097       8.121       7.038       5.920       5.021       4.049       2.882       1.514      4.4908E-03
   4    9.998       9.012       7.896       6.542       5.009       4.503       3.797       2.766       1.469      4.3567E-03
   5    9.997       8.964       7.733       5.981       2.890       3.915       3.618       2.704       1.448      4.2954E-03
   6    9.998       9.018       7.906       6.557       5.025       4.518       3.810       2.775       1.474      4.3709E-03
   7    9.998       9.111       8.147       7.073       5.958       5.058       4.080       2.903       1.525      4.5240E-03
   8    9.998       9.196       8.341       7.409       6.419       5.411       4.300       3.024       1.578      4.6812E-03
   9    9.998       9.254       8.465       7.604       6.657       5.616       4.443       3.110       1.618      4.7989E-03
  10    9.998       9.283       8.525       7.691       6.760       5.709       4.512       3.153       1.639      4.8601E-03
1
              HEAD IN LAYER   4 AT END OF TIME STEP  37 IN STRESS PERIOD    4
  ---------------------------------------------------------------------------

            1           2           3           4           5           6           7           8           9          10
 ........................................................................................................................
   1    9.998       9.208       8.376       7.479       6.516       5.482       4.335       3.035       1.579      4.7197E-03
   2    9.998       9.168       8.289       7.339       6.339       5.334       4.236       2.979       1.554      4.6451E-03
   3    9.998       9.095       8.118       7.033       5.914       5.015       4.043       2.877       1.511      4.5160E-03
   4    9.998       9.010       7.892       6.537       5.009       4.497       3.792       2.762       1.466      4.3810E-03
   5    9.997       8.962       7.729       5.980       3.063       3.916       3.613       2.700       1.445      4.3194E-03
   6    9.998       9.016       7.903       6.552       5.025       4.513       3.805       2.771       1.471      4.3954E-03
   7    9.998       9.109       8.143       7.068       5.953       5.052       4.074       2.899       1.522      4.5496E-03
   8    9.998       9.194       8.338       7.405       6.414       5.406       4.295       3.020       1.575      4.7079E-03
   9    9.998       9.253       8.462       7.599       6.652       5.611       4.438       3.106       1.615      4.8266E-03
  10    9.998       9.282       8.522       7.687       6.755       5.704       4.507       3.149       1.636      4.8882E-03

 HEAD WILL BE SAVED ON UNIT   51 AT END OF TIME STEP   37, STRESS PERIOD    4

 DRAWDOWN WILL BE SAVED ON UNIT   52 AT END OF TIME STEP   37, STRESS PERIOD    4
1
  VOLUMETRIC BUDGET FOR ENTIRE MODEL AT END OF TIME STEP   37, STRESS PERIOD   4
  ------------------------------------------------------------------------------

     CUMULATIVE VOLUMES      L**3       RATES FOR THIS TIME STEP      L**3/T
     ------------------                 ------------------------

           IN:                                      IN:
           ---                                      ---
             STORAGE =      482263.3125               STORAGE =         765.4733
       CONSTANT HEAD =           0.0000         CONSTANT HEAD =           0.0000
               WELLS =           0.0000                 WELLS =           0.0000
     HEAD DEP BOUNDS =       44811.1094       HEAD DEP BOUNDS =         514.2562

            TOTAL IN =      527074.4375              TOTAL IN =        1279.7295

          OUT:                                     OUT:
          ----                                     ----
             STORAGE =           0.0000               STORAGE =           0.0000
       CONSTANT HEAD =           0.0000         CONSTANT HEAD =           0.0000
               WELLS =       68500.0000                 WELLS =         500.0000
     HEAD DEP BOUNDS =      458576.3750       HEAD DEP BOUNDS =         779.7342

           TOTAL OUT =      527076.3750             TOTAL OUT =        1279.7341

            IN - OUT =          -1.9375              IN - OUT =      -4.6387E-03

 PERCENT DISCREPANCY =          -0.00     PERCENT DISCREPANCY =          -0.00






         TIME SUMMARY AT END OF TIME STEP   37 IN STRESS PERIOD    4
                    SECONDS     MINUTES      HOURS       DAYS        YEARS
                    -----------------------------------------------------------
   TIME STEP LENGTH  86400.      1440.0      24.000      1.0000     2.73785E-03
 STRESS PERIOD TIME 3.19680E+06  53280.      888.00      37.000     0.10130    
         TOTAL TIME 2.05632E+07 3.42720E+05  5712.0      238.00     0.65161    
1
 
 SOLVING FOR HEAD 

 OUTPUT CONTROL FOR STRESS PERIOD    4   TIME STEP   38
    SAVE HEAD FOR ALL LAYERS
    SAVE DRAWDOWN FOR ALL LAYERS
    SAVE BUDGET
    PRINT HEAD FOR ALL LAYERS
    PRINT BUDGET
 UBDSV1 SAVING "         STORAGE" ON UNIT  53 AT TIME STEP 38, STRESS PERIOD   4
 UBDSV2 SAVING "   CONSTANT HEAD" ON UNIT  53 AT TIME STEP 38, STRESS PERIOD   4
 UBDSV1 SAVING "FLOW RIGHT FACE " ON UNIT  53 AT TIME STEP 38, STRESS PERIOD   4
 UBDSV1 SAVING "FLOW FRONT FACE " ON UNIT  53 AT TIME STEP 38, STRESS PERIOD   4
 UBDSV1 SAVING "FLOW LOWER FACE " ON UNIT  53 AT TIME STEP 38, STRESS PERIOD   4
1
              HEAD IN LAYER   1 AT END OF TIME STEP  38 IN STRESS PERIOD    4
  ---------------------------------------------------------------------------

            1           2           3           4           5           6           7           8           9          10
 ........................................................................................................................
   1    9.998       9.214       8.387       7.494       6.533       5.501       4.352       3.050       1.591      2.2328E-03
   2    9.998       9.175       8.300       7.354       6.357       5.353       4.254       2.994       1.565      2.1952E-03
   3    9.998       9.103       8.130       7.050       5.933       5.034       4.061       2.892       1.522      2.1298E-03
   4    9.998       9.018       7.906       6.556       5.013       4.514       3.809       2.776       1.476      2.0619E-03
   5    9.998       8.970       7.744       5.989       2.084       3.913       3.629       2.714       1.456      2.0310E-03
   6    9.998       9.023       7.916       6.570       5.029       4.530       3.822       2.785       1.481      2.0691E-03
   7    9.998       9.116       8.155       7.084       5.971       5.070       4.091       2.914       1.533      2.1467E-03
   8    9.998       9.200       8.349       7.420       6.431       5.424       4.312       3.035       1.586      2.2265E-03
   9    9.998       9.258       8.473       7.613       6.668       5.628       4.455       3.121       1.626      2.2866E-03
  10    9.998       9.287       8.532       7.701       6.771       5.721       4.524       3.164       1.647      2.3176E-03
1
              HEAD IN LAYER   2 AT END OF TIME STEP  38 IN STRESS PERIOD    4
  ---------------------------------------------------------------------------

            1           2           3           4           5           6           7           8           9          10
 ........................................................................................................................
   1    9.998       9.209       8.378       7.482       6.519       5.486       4.339       3.040       1.584      4.3562E-03
   2    9.998       9.170       8.291       7.342       6.343       5.339       4.241       2.984       1.559      4.2870E-03
   3    9.998       9.097       8.121       7.037       5.918       5.019       4.048       2.882       1.515      4.1671E-03
   4    9.998       9.012       7.895       6.542       5.000       4.500       3.796       2.766       1.470      4.0417E-03
   5    9.997       8.964       7.733       5.974       2.514       3.904       3.617       2.704       1.449      3.9844E-03
   6    9.998       9.017       7.906       6.556       5.016       4.516       3.809       2.775       1.475      4.0550E-03
   7    9.998       9.110       8.146       7.071       5.957       5.056       4.079       2.903       1.526      4.1982E-03
   8    9.998       9.195       8.340       7.408       6.417       5.410       4.299       3.024       1.580      4.3452E-03
   9    9.998       9.254       8.464       7.602       6.655       5.615       4.443       3.111       1.620      4.4553E-03
  10    9.998       9.283       8.524       7.690       6.758       5.708       4.512       3.154       1.640      4.5125E-03
1
              HEAD IN LAYER   3 AT END OF TIME STEP  38 IN STRESS PERIOD    4
  ---------------------------------------------------------------------------

            1           2           3           4           5           6           7           8           9          10
 ........................................................................................................................
   1    9.998       9.206       8.371       7.473       6.509       5.475       4.329       3.031       1.577      4.6787E-03
   2    9.998       9.166       8.284       7.332       6.332       5.327       4.230       2.974       1.552      4.6045E-03
   3    9.998       9.093       8.114       7.027       5.907       5.008       4.037       2.872       1.509      4.4760E-03
   4    9.998       9.008       7.888       6.531       4.996       4.489       3.785       2.757       1.464      4.3417E-03
   5    9.997       8.960       7.725       5.970       2.876       3.902       3.606       2.695       1.443      4.2803E-03
   6    9.998       9.014       7.899       6.546       5.012       4.505       3.799       2.766       1.469      4.3561E-03
   7    9.998       9.107       8.139       7.062       5.946       5.045       4.068       2.894       1.520      4.5096E-03
   8    9.998       9.192       8.334       7.399       6.407       5.399       4.289       3.016       1.574      4.6673E-03
   9    9.998       9.251       8.458       7.594       6.645       5.604       4.433       3.102       1.613      4.7856E-03
  10    9.998       9.280       8.518       7.682       6.749       5.698       4.502       3.145       1.634      4.8470E-03
1
              HEAD IN LAYER   4 AT END OF TIME STEP  38 IN STRESS PERIOD    4
  ---------------------------------------------------------------------------

            1           2           3           4           5           6           7           8           9          10
 ........................................................................................................................
   1    9.998       9.204       8.368       7.469       6.504       5.470       4.323       3.026       1.574      4.7052E-03
   2    9.998       9.164       8.281       7.328       6.326       5.322       4.224       2.970       1.549      4.6305E-03
   3    9.998       9.091       8.110       7.023       5.901       5.002       4.032       2.868       1.506      4.5012E-03
   4    9.998       9.006       7.884       6.526       4.996       4.484       3.780       2.752       1.461      4.3660E-03
   5    9.997       8.958       7.721       5.969       3.049       3.903       3.601       2.691       1.440      4.3043E-03
   6    9.998       9.012       7.895       6.541       5.012       4.500       3.793       2.762       1.466      4.3806E-03
   7    9.998       9.105       8.136       7.057       5.940       5.039       4.063       2.890       1.517      4.5352E-03
   8    9.998       9.190       8.330       7.395       6.402       5.394       4.284       3.011       1.571      4.6941E-03
   9    9.998       9.249       8.455       7.590       6.640       5.599       4.428       3.098       1.610      4.8132E-03
  10    9.998       9.278       8.515       7.678       6.744       5.692       4.497       3.141       1.631      4.8750E-03

 HEAD WILL BE SAVED ON UNIT   51 AT END OF TIME STEP   38, STRESS PERIOD    4

 DRAWDOWN WILL BE SAVED ON UNIT   52 AT END OF TIME STEP   38, STRESS PERIOD    4
1
  VOLUMETRIC BUDGET FOR ENTIRE MODEL AT END OF TIME STEP   38, STRESS PERIOD   4
  ------------------------------------------------------------------------------

     CUMULATIVE VOLUMES      L**3       RATES FOR THIS TIME STEP      L**3/T
     ------------------                 ------------------------

           IN:                                      IN:
           ---                                      ---
             STORAGE =      483023.9688               STORAGE =         760.6675
       CONSTANT HEAD =           0.0000         CONSTANT HEAD =           0.0000
               WELLS =           0.0000                 WELLS =           0.0000
     HEAD DEP BOUNDS =       45327.6992       HEAD DEP BOUNDS =         516.5916

            TOTAL IN =      528351.6875              TOTAL IN =        1277.2590

          OUT:                                     OUT:
          ----                                     ----
             STORAGE =           0.0000               STORAGE =           0.0000
       CONSTANT HEAD =           0.0000         CONSTANT HEAD =           0.0000
               WELLS =       69000.0000                 WELLS =         500.0000
     HEAD DEP BOUNDS =      459353.6250       HEAD DEP BOUNDS =         777.2578

           TOTAL OUT =      528353.6250             TOTAL OUT =        1277.2578

            IN - OUT =          -1.9375              IN - OUT =       1.2207E-03

 PERCENT DISCREPANCY =          -0.00     PERCENT DISCREPANCY =           0.00






         TIME SUMMARY AT END OF TIME STEP   38 IN STRESS PERIOD    4
                    SECONDS     MINUTES      HOURS       DAYS        YEARS
                    -----------------------------------------------------------
   TIME STEP LENGTH  86400.      1440.0      24.000      1.0000     2.73785E-03
 STRESS PERIOD TIME 3.28320E+06  54720.      912.00      38.000     0.10404    
         TOTAL TIME 2.06496E+07 3.44160E+05  5736.0      239.00     0.65435    
1
 
 SOLVING FOR HEAD 

 OUTPUT CONTROL FOR STRESS PERIOD    4   TIME STEP   39
    SAVE HEAD FOR ALL LAYERS
    SAVE DRAWDOWN FOR ALL LAYERS
    SAVE BUDGET
    PRINT HEAD FOR ALL LAYERS
    PRINT BUDGET
 UBDSV1 SAVING "         STORAGE" ON UNIT  53 AT TIME STEP 39, STRESS PERIOD   4
 UBDSV2 SAVING "   CONSTANT HEAD" ON UNIT  53 AT TIME STEP 39, STRESS PERIOD   4
 UBDSV1 SAVING "FLOW RIGHT FACE " ON UNIT  53 AT TIME STEP 39, STRESS PERIOD   4
 UBDSV1 SAVING "FLOW FRONT FACE " ON UNIT  53 AT TIME STEP 39, STRESS PERIOD   4
 UBDSV1 SAVING "FLOW LOWER FACE " ON UNIT  53 AT TIME STEP 39, STRESS PERIOD   4
1
              HEAD IN LAYER   1 AT END OF TIME STEP  39 IN STRESS PERIOD    4
  ---------------------------------------------------------------------------

            1           2           3           4           5           6           7           8           9          10
 ........................................................................................................................
   1    9.998       9.210       8.379       7.484       6.521       5.488       4.341       3.041       1.586      2.2254E-03
   2    9.998       9.171       8.293       7.343       6.344       5.340       4.242       2.985       1.560      2.1877E-03
   3    9.998       9.098       8.122       7.039       5.920       5.020       4.049       2.883       1.517      2.1224E-03
   4    9.998       9.013       7.897       6.545       4.999       4.501       3.797       2.767       1.471      2.0543E-03
   5    9.998       8.966       7.736       5.978       2.070       3.899       3.617       2.705       1.450      2.0233E-03
   6    9.998       9.019       7.908       6.559       5.016       4.517       3.810       2.776       1.476      2.0616E-03
   7    9.998       9.112       8.148       7.073       5.959       5.057       4.080       2.905       1.528      2.1393E-03
   8    9.998       9.196       8.341       7.410       6.419       5.412       4.301       3.026       1.582      2.2194E-03
   9    9.998       9.255       8.466       7.604       6.657       5.616       4.445       3.112       1.622      2.2797E-03
  10    9.998       9.284       8.525       7.691       6.760       5.709       4.514       3.156       1.642      2.3109E-03
1
              HEAD IN LAYER   2 AT END OF TIME STEP  39 IN STRESS PERIOD    4
  ---------------------------------------------------------------------------

            1           2           3           4           5           6           7           8           9          10
 ........................................................................................................................
   1    9.998       9.205       8.370       7.472       6.507       5.474       4.328       3.031       1.579      4.3428E-03
   2    9.998       9.166       8.283       7.331       6.330       5.326       4.229       2.975       1.554      4.2734E-03
   3    9.998       9.093       8.113       7.026       5.905       5.006       4.036       2.873       1.510      4.1533E-03
   4    9.998       9.008       7.887       6.531       4.987       4.487       3.784       2.757       1.465      4.0277E-03
   5    9.997       8.960       7.725       5.963       2.500       3.890       3.605       2.695       1.444      3.9704E-03
   6    9.998       9.013       7.898       6.545       5.003       4.503       3.797       2.766       1.470      4.0412E-03
   7    9.998       9.106       8.138       7.061       5.944       5.044       4.067       2.895       1.522      4.1848E-03
   8    9.998       9.191       8.332       7.398       6.406       5.398       4.288       3.016       1.575      4.3323E-03
   9    9.998       9.250       8.457       7.592       6.644       5.603       4.432       3.102       1.615      4.4429E-03
  10    9.998       9.279       8.517       7.680       6.747       5.696       4.502       3.146       1.636      4.5003E-03
1
              HEAD IN LAYER   3 AT END OF TIME STEP  39 IN STRESS PERIOD    4
  ---------------------------------------------------------------------------

            1           2           3           4           5           6           7           8           9          10
 ........................................................................................................................
   1    9.998       9.202       8.364       7.463       6.497       5.463       4.317       3.022       1.573      4.6643E-03
   2    9.998       9.162       8.277       7.322       6.319       5.315       4.218       2.966       1.548      4.5900E-03
   3    9.998       9.089       8.106       7.017       5.894       4.995       4.025       2.863       1.504      4.4613E-03
   4    9.998       9.004       7.880       6.520       4.983       4.476       3.773       2.748       1.459      4.3268E-03
   5    9.997       8.956       7.717       5.958       2.862       3.888       3.594       2.686       1.438      4.2654E-03
   6    9.998       9.009       7.891       6.535       4.999       4.492       3.787       2.757       1.464      4.3414E-03
   7    9.998       9.103       8.132       7.052       5.934       5.032       4.057       2.886       1.516      4.4954E-03
   8    9.998       9.188       8.326       7.389       6.395       5.387       4.278       3.007       1.569      4.6536E-03
   9    9.998       9.247       8.451       7.584       6.634       5.593       4.422       3.094       1.609      4.7723E-03
  10    9.998       9.276       8.511       7.673       6.738       5.686       4.492       3.137       1.630      4.8339E-03
1
              HEAD IN LAYER   4 AT END OF TIME STEP  39 IN STRESS PERIOD    4
  ---------------------------------------------------------------------------

            1           2           3           4           5           6           7           8           9          10
 ........................................................................................................................
   1    9.998       9.200       8.360       7.458       6.491       5.457       4.312       3.017       1.570      4.6908E-03
   2    9.998       9.160       8.273       7.317       6.314       5.309       4.213       2.961       1.544      4.6160E-03
   3    9.998       9.087       8.102       7.012       5.889       4.989       4.020       2.859       1.501      4.4864E-03
   4    9.998       9.002       7.876       6.515       4.983       4.471       3.768       2.743       1.456      4.3510E-03
   5    9.997       8.954       7.713       5.958       3.035       3.889       3.589       2.682       1.435      4.2893E-03
   6    9.998       9.007       7.887       6.530       4.999       4.487       3.781       2.753       1.461      4.3658E-03
   7    9.998       9.101       8.128       7.047       5.928       5.027       4.052       2.881       1.513      4.5209E-03
   8    9.998       9.186       8.323       7.385       6.390       5.382       4.273       3.003       1.566      4.6803E-03
   9    9.998       9.245       8.448       7.580       6.629       5.588       4.417       3.090       1.606      4.7998E-03
  10    9.998       9.275       8.508       7.669       6.733       5.681       4.487       3.133       1.627      4.8620E-03

 HEAD WILL BE SAVED ON UNIT   51 AT END OF TIME STEP   39, STRESS PERIOD    4

 DRAWDOWN WILL BE SAVED ON UNIT   52 AT END OF TIME STEP   39, STRESS PERIOD    4
1
  VOLUMETRIC BUDGET FOR ENTIRE MODEL AT END OF TIME STEP   39, STRESS PERIOD   4
  ------------------------------------------------------------------------------

     CUMULATIVE VOLUMES      L**3       RATES FOR THIS TIME STEP      L**3/T
     ------------------                 ------------------------

           IN:                                      IN:
           ---                                      ---
             STORAGE =      483779.8438               STORAGE =         755.8817
       CONSTANT HEAD =           0.0000         CONSTANT HEAD =           0.0000
               WELLS =           0.0000                 WELLS =           0.0000
     HEAD DEP BOUNDS =       45846.6055       HEAD DEP BOUNDS =         518.9053

            TOTAL IN =      529626.4375              TOTAL IN =        1274.7870

          OUT:                                     OUT:
          ----                                     ----
             STORAGE =           0.0000               STORAGE =           0.0000
       CONSTANT HEAD =           0.0000         CONSTANT HEAD =           0.0000
               WELLS =       69500.0000                 WELLS =         500.0000
     HEAD DEP BOUNDS =      460128.4375       HEAD DEP BOUNDS =         774.7975

           TOTAL OUT =      529628.4375             TOTAL OUT =        1274.7976

            IN - OUT =          -2.0000              IN - OUT =      -1.0620E-02

 PERCENT DISCREPANCY =          -0.00     PERCENT DISCREPANCY =          -0.00






         TIME SUMMARY AT END OF TIME STEP   39 IN STRESS PERIOD    4
                    SECONDS     MINUTES      HOURS       DAYS        YEARS
                    -----------------------------------------------------------
   TIME STEP LENGTH  86400.      1440.0      24.000      1.0000     2.73785E-03
 STRESS PERIOD TIME 3.36960E+06  56160.      936.00      39.000     0.10678    
         TOTAL TIME 2.07360E+07 3.45600E+05  5760.0      240.00     0.65708    
1
 
 SOLVING FOR HEAD 

 OUTPUT CONTROL FOR STRESS PERIOD    4   TIME STEP   40
    SAVE HEAD FOR ALL LAYERS
    SAVE DRAWDOWN FOR ALL LAYERS
    SAVE BUDGET
    PRINT HEAD FOR ALL LAYERS
    PRINT BUDGET
 UBDSV1 SAVING "         STORAGE" ON UNIT  53 AT TIME STEP 40, STRESS PERIOD   4
 UBDSV2 SAVING "   CONSTANT HEAD" ON UNIT  53 AT TIME STEP 40, STRESS PERIOD   4
 UBDSV1 SAVING "FLOW RIGHT FACE " ON UNIT  53 AT TIME STEP 40, STRESS PERIOD   4
 UBDSV1 SAVING "FLOW FRONT FACE " ON UNIT  53 AT TIME STEP 40, STRESS PERIOD   4
 UBDSV1 SAVING "FLOW LOWER FACE " ON UNIT  53 AT TIME STEP 40, STRESS PERIOD   4
1
              HEAD IN LAYER   1 AT END OF TIME STEP  40 IN STRESS PERIOD    4
  ---------------------------------------------------------------------------

            1           2           3           4           5           6           7           8           9          10
 ........................................................................................................................
   1    9.998       9.206       8.371       7.473       6.509       5.475       4.329       3.033       1.581      2.2180E-03
   2    9.998       9.167       8.285       7.333       6.332       5.327       4.230       2.976       1.556      2.1802E-03
   3    9.998       9.094       8.114       7.028       5.907       5.007       4.037       2.874       1.512      2.1148E-03
   4    9.998       9.009       7.890       6.533       4.986       4.488       3.785       2.758       1.466      2.0468E-03
   5    9.997       8.962       7.728       5.967       2.056       3.886       3.605       2.696       1.445      2.0157E-03
   6    9.998       9.015       7.900       6.548       5.003       4.504       3.798       2.767       1.471      2.0541E-03
   7    9.998       9.108       8.140       7.063       5.946       5.045       4.069       2.896       1.523      2.1319E-03
   8    9.998       9.193       8.334       7.400       6.407       5.399       4.290       3.018       1.577      2.2123E-03
   9    9.998       9.251       8.459       7.594       6.645       5.605       4.434       3.104       1.617      2.2728E-03
  10    9.998       9.280       8.518       7.682       6.749       5.698       4.503       3.148       1.638      2.3042E-03
1
              HEAD IN LAYER   2 AT END OF TIME STEP  40 IN STRESS PERIOD    4
  ---------------------------------------------------------------------------

            1           2           3           4           5           6           7           8           9          10
 ........................................................................................................................
   1    9.998       9.201       8.362       7.461       6.495       5.461       4.316       3.022       1.574      4.3294E-03
   2    9.998       9.162       8.276       7.320       6.318       5.313       4.217       2.966       1.549      4.2599E-03
   3    9.998       9.089       8.105       7.015       5.893       4.993       4.024       2.864       1.505      4.1395E-03
   4    9.998       9.003       7.879       6.520       4.974       4.474       3.772       2.748       1.460      4.0138E-03
   5    9.997       8.956       7.717       5.952       2.486       3.877       3.593       2.686       1.439      3.9565E-03
   6    9.998       9.009       7.890       6.534       4.990       4.490       3.786       2.757       1.465      4.0275E-03
   7    9.998       9.103       8.131       7.051       5.932       5.031       4.056       2.886       1.517      4.1715E-03
   8    9.998       9.188       8.325       7.388       6.394       5.386       4.278       3.008       1.570      4.3194E-03
   9    9.998       9.247       8.450       7.583       6.633       5.592       4.422       3.094       1.611      4.4304E-03
  10    9.998       9.276       8.510       7.671       6.736       5.685       4.491       3.138       1.631      4.4881E-03
1
              HEAD IN LAYER   3 AT END OF TIME STEP  40 IN STRESS PERIOD    4
  ---------------------------------------------------------------------------

            1           2           3           4           5           6           7           8           9          10
 ........................................................................................................................
   1    9.998       9.198       8.356       7.452       6.485       5.450       4.306       3.013       1.568      4.6501E-03
   2    9.998       9.158       8.269       7.311       6.307       5.302       4.207       2.957       1.543      4.5756E-03
   3    9.998       9.085       8.098       7.006       5.882       4.982       4.014       2.855       1.499      4.4466E-03
   4    9.998       9.000       7.872       6.509       4.970       4.463       3.762       2.739       1.454      4.3120E-03
   5    9.997       8.952       7.709       5.947       2.848       3.875       3.583       2.677       1.433      4.2506E-03
   6    9.998       9.005       7.883       6.524       4.987       4.479       3.775       2.748       1.459      4.3268E-03
   7    9.998       9.099       8.124       7.041       5.921       5.020       4.046       2.877       1.511      4.4812E-03
   8    9.998       9.184       8.319       7.380       6.384       5.375       4.267       2.999       1.564      4.6400E-03
   9    9.998       9.243       8.444       7.575       6.623       5.581       4.412       3.086       1.605      4.7591E-03
  10    9.998       9.273       8.504       7.663       6.727       5.675       4.482       3.130       1.625      4.8210E-03
1
              HEAD IN LAYER   4 AT END OF TIME STEP  40 IN STRESS PERIOD    4
  ---------------------------------------------------------------------------

            1           2           3           4           5           6           7           8           9          10
 ........................................................................................................................
   1    9.998       9.196       8.353       7.448       6.479       5.445       4.301       3.009       1.565      4.6765E-03
   2    9.998       9.156       8.266       7.307       6.302       5.296       4.201       2.952       1.540      4.6015E-03
   3    9.998       9.083       8.095       7.001       5.876       4.976       4.008       2.850       1.496      4.4717E-03
   4    9.998       8.998       7.868       6.504       4.970       4.457       3.756       2.734       1.451      4.3362E-03
   5    9.997       8.950       7.706       5.947       3.022       3.876       3.577       2.673       1.430      4.2745E-03
   6    9.998       9.003       7.879       6.520       4.987       4.474       3.770       2.744       1.456      4.3512E-03
   7    9.998       9.097       8.121       7.037       5.916       5.014       4.040       2.873       1.508      4.5067E-03
   8    9.998       9.183       8.316       7.375       6.379       5.370       4.262       2.995       1.561      4.6666E-03
   9    9.998       9.242       8.442       7.571       6.618       5.576       4.407       3.082       1.602      4.7866E-03
  10    9.998       9.271       8.501       7.659       6.722       5.670       4.477       3.125       1.622      4.8490E-03

 HEAD WILL BE SAVED ON UNIT   51 AT END OF TIME STEP   40, STRESS PERIOD    4

 DRAWDOWN WILL BE SAVED ON UNIT   52 AT END OF TIME STEP   40, STRESS PERIOD    4
1
  VOLUMETRIC BUDGET FOR ENTIRE MODEL AT END OF TIME STEP   40, STRESS PERIOD   4
  ------------------------------------------------------------------------------

     CUMULATIVE VOLUMES      L**3       RATES FOR THIS TIME STEP      L**3/T
     ------------------                 ------------------------

           IN:                                      IN:
           ---                                      ---
             STORAGE =      484530.9688               STORAGE =         751.1284
       CONSTANT HEAD =           0.0000         CONSTANT HEAD =           0.0000
               WELLS =           0.0000                 WELLS =           0.0000
     HEAD DEP BOUNDS =       46367.8398       HEAD DEP BOUNDS =         521.2358

            TOTAL IN =      530898.8125              TOTAL IN =        1272.3643

          OUT:                                     OUT:
          ----                                     ----
             STORAGE =           0.0000               STORAGE =           0.0000
       CONSTANT HEAD =           0.0000         CONSTANT HEAD =           0.0000
               WELLS =       70000.0000                 WELLS =         500.0000
     HEAD DEP BOUNDS =      460900.7812       HEAD DEP BOUNDS =         772.3511

           TOTAL OUT =      530900.7500             TOTAL OUT =        1272.3511

            IN - OUT =          -1.9375              IN - OUT =       1.3184E-02

 PERCENT DISCREPANCY =          -0.00     PERCENT DISCREPANCY =           0.00






         TIME SUMMARY AT END OF TIME STEP   40 IN STRESS PERIOD    4
                    SECONDS     MINUTES      HOURS       DAYS        YEARS
                    -----------------------------------------------------------
   TIME STEP LENGTH  86400.      1440.0      24.000      1.0000     2.73785E-03
 STRESS PERIOD TIME 3.45600E+06  57600.      960.00      40.000     0.10951    
         TOTAL TIME 2.08224E+07 3.47040E+05  5784.0      241.00     0.65982    
1
 
 SOLVING FOR HEAD 

 OUTPUT CONTROL FOR STRESS PERIOD    4   TIME STEP   41
    SAVE HEAD FOR ALL LAYERS
    SAVE DRAWDOWN FOR ALL LAYERS
    SAVE BUDGET
    PRINT HEAD FOR ALL LAYERS
    PRINT BUDGET
 UBDSV1 SAVING "         STORAGE" ON UNIT  53 AT TIME STEP 41, STRESS PERIOD   4
 UBDSV2 SAVING "   CONSTANT HEAD" ON UNIT  53 AT TIME STEP 41, STRESS PERIOD   4
 UBDSV1 SAVING "FLOW RIGHT FACE " ON UNIT  53 AT TIME STEP 41, STRESS PERIOD   4
 UBDSV1 SAVING "FLOW FRONT FACE " ON UNIT  53 AT TIME STEP 41, STRESS PERIOD   4
 UBDSV1 SAVING "FLOW LOWER FACE " ON UNIT  53 AT TIME STEP 41, STRESS PERIOD   4
1
              HEAD IN LAYER   1 AT END OF TIME STEP  41 IN STRESS PERIOD    4
  ---------------------------------------------------------------------------

            1           2           3           4           5           6           7           8           9          10
 ........................................................................................................................
   1    9.998       9.202       8.364       7.463       6.497       5.463       4.318       3.024       1.576      2.2107E-03
   2    9.998       9.163       8.277       7.322       6.320       5.315       4.219       2.967       1.551      2.1728E-03
   3    9.998       9.090       8.107       7.017       5.895       4.994       4.026       2.865       1.507      2.1075E-03
   4    9.998       9.005       7.882       6.522       4.973       4.474       3.773       2.749       1.461      2.0393E-03
   5    9.997       8.958       7.720       5.956       2.043       3.873       3.593       2.687       1.440      2.0082E-03
   6    9.998       9.011       7.893       6.537       4.990       4.491       3.786       2.758       1.466      2.0468E-03
   7    9.998       9.104       8.133       7.053       5.934       5.032       4.057       2.887       1.519      2.1249E-03
   8    9.998       9.189       8.327       7.390       6.396       5.387       4.279       3.009       1.572      2.2055E-03
   9    9.998       9.248       8.452       7.584       6.634       5.593       4.424       3.096       1.613      2.2660E-03
  10    9.998       9.277       8.511       7.673       6.738       5.687       4.493       3.140       1.633      2.2975E-03
1
              HEAD IN LAYER   2 AT END OF TIME STEP  41 IN STRESS PERIOD    4
  ---------------------------------------------------------------------------

            1           2           3           4           5           6           7           8           9          10
 ........................................................................................................................
   1    9.998       9.197       8.355       7.451       6.483       5.449       4.305       3.014       1.569      4.3161E-03
   2    9.998       9.158       8.268       7.310       6.306       5.300       4.206       2.957       1.544      4.2464E-03
   3    9.998       9.085       8.097       7.005       5.880       4.980       4.013       2.855       1.500      4.1259E-03
   4    9.998       8.999       7.871       6.509       4.961       4.461       3.760       2.739       1.455      4.0000E-03
   5    9.997       8.952       7.709       5.941       2.472       3.863       3.581       2.677       1.434      3.9427E-03
   6    9.998       9.005       7.883       6.524       4.978       4.477       3.774       2.748       1.460      4.0139E-03
   7    9.998       9.099       8.123       7.040       5.920       5.019       4.045       2.877       1.512      4.1583E-03
   8    9.998       9.184       8.318       7.378       6.382       5.374       4.267       2.999       1.566      4.3067E-03
   9    9.998       9.243       8.443       7.573       6.622       5.580       4.411       3.086       1.606      4.4181E-03
  10    9.998       9.272       8.503       7.662       6.725       5.674       4.481       3.130       1.627      4.4760E-03
1
              HEAD IN LAYER   3 AT END OF TIME STEP  41 IN STRESS PERIOD    4
  ---------------------------------------------------------------------------

            1           2           3           4           5           6           7           8           9          10
 ........................................................................................................................
   1    9.998       9.194       8.349       7.442       6.472       5.438       4.295       3.005       1.563      4.6359E-03
   2    9.998       9.154       8.261       7.301       6.295       5.289       4.195       2.948       1.538      4.5613E-03
   3    9.998       9.081       8.090       6.995       5.869       4.969       4.002       2.846       1.494      4.4321E-03
   4    9.997       8.995       7.864       6.498       4.957       4.450       3.750       2.730       1.449      4.2973E-03
   5    9.997       8.948       7.702       5.936       2.835       3.862       3.571       2.668       1.428      4.2359E-03
   6    9.998       9.001       7.875       6.514       4.974       4.466       3.764       2.740       1.454      4.3123E-03
   7    9.998       9.095       8.117       7.031       5.909       5.008       4.034       2.868       1.506      4.4672E-03
   8    9.998       9.181       8.312       7.370       6.372       5.363       4.257       2.991       1.560      4.6264E-03
   9    9.998       9.240       8.438       7.565       6.612       5.570       4.402       3.078       1.600      4.7459E-03
  10    9.998       9.269       8.498       7.654       6.716       5.664       4.471       3.122       1.621      4.8081E-03
1
              HEAD IN LAYER   4 AT END OF TIME STEP  41 IN STRESS PERIOD    4
  ---------------------------------------------------------------------------

            1           2           3           4           5           6           7           8           9          10
 ........................................................................................................................
   1    9.998       9.192       8.345       7.438       6.467       5.432       4.289       3.000       1.560      4.6623E-03
   2    9.998       9.153       8.258       7.296       6.290       5.284       4.190       2.944       1.535      4.5872E-03
   3    9.998       9.079       8.087       6.990       5.864       4.963       3.997       2.841       1.491      4.4571E-03
   4    9.997       8.994       7.860       6.494       4.957       4.444       3.744       2.725       1.446      4.3214E-03
   5    9.997       8.946       7.698       5.936       3.008       3.863       3.566       2.664       1.425      4.2597E-03
   6    9.998       8.999       7.872       6.509       4.974       4.461       3.758       2.735       1.451      4.3367E-03
   7    9.998       9.093       8.114       7.026       5.904       5.002       4.029       2.864       1.503      4.4926E-03
   8    9.998       9.179       8.309       7.366       6.367       5.358       4.252       2.986       1.557      4.6530E-03
   9    9.998       9.238       8.435       7.561       6.607       5.565       4.397       3.074       1.597      4.7734E-03
  10    9.998       9.267       8.495       7.650       6.711       5.659       4.466       3.118       1.618      4.8360E-03

 HEAD WILL BE SAVED ON UNIT   51 AT END OF TIME STEP   41, STRESS PERIOD    4

 DRAWDOWN WILL BE SAVED ON UNIT   52 AT END OF TIME STEP   41, STRESS PERIOD    4
1
  VOLUMETRIC BUDGET FOR ENTIRE MODEL AT END OF TIME STEP   41, STRESS PERIOD   4
  ------------------------------------------------------------------------------

     CUMULATIVE VOLUMES      L**3       RATES FOR THIS TIME STEP      L**3/T
     ------------------                 ------------------------

           IN:                                      IN:
           ---                                      ---
             STORAGE =      485277.3750               STORAGE =         746.4082
       CONSTANT HEAD =           0.0000         CONSTANT HEAD =           0.0000
               WELLS =           0.0000                 WELLS =           0.0000
     HEAD DEP BOUNDS =       46891.3633       HEAD DEP BOUNDS =         523.5225

            TOTAL IN =      532168.7500              TOTAL IN =        1269.9307

          OUT:                                     OUT:
          ----                                     ----
             STORAGE =           0.0000               STORAGE =           0.0000
       CONSTANT HEAD =           0.0000         CONSTANT HEAD =           0.0000
               WELLS =       70500.0000                 WELLS =         500.0000
     HEAD DEP BOUNDS =      461670.7188       HEAD DEP BOUNDS =         769.9260

           TOTAL OUT =      532170.7500             TOTAL OUT =        1269.9260

            IN - OUT =          -2.0000              IN - OUT =       4.6387E-03

 PERCENT DISCREPANCY =          -0.00     PERCENT DISCREPANCY =           0.00






         TIME SUMMARY AT END OF TIME STEP   41 IN STRESS PERIOD    4
                    SECONDS     MINUTES      HOURS       DAYS        YEARS
                    -----------------------------------------------------------
   TIME STEP LENGTH  86400.      1440.0      24.000      1.0000     2.73785E-03
 STRESS PERIOD TIME 3.54240E+06  59040.      984.00      41.000     0.11225    
         TOTAL TIME 2.09088E+07 3.48480E+05  5808.0      242.00     0.66256    
1
 
 SOLVING FOR HEAD 

 OUTPUT CONTROL FOR STRESS PERIOD    4   TIME STEP   42
    SAVE HEAD FOR ALL LAYERS
    SAVE DRAWDOWN FOR ALL LAYERS
    SAVE BUDGET
    PRINT HEAD FOR ALL LAYERS
    PRINT BUDGET
 UBDSV1 SAVING "         STORAGE" ON UNIT  53 AT TIME STEP 42, STRESS PERIOD   4
 UBDSV2 SAVING "   CONSTANT HEAD" ON UNIT  53 AT TIME STEP 42, STRESS PERIOD   4
 UBDSV1 SAVING "FLOW RIGHT FACE " ON UNIT  53 AT TIME STEP 42, STRESS PERIOD   4
 UBDSV1 SAVING "FLOW FRONT FACE " ON UNIT  53 AT TIME STEP 42, STRESS PERIOD   4
 UBDSV1 SAVING "FLOW LOWER FACE " ON UNIT  53 AT TIME STEP 42, STRESS PERIOD   4
1
              HEAD IN LAYER   1 AT END OF TIME STEP  42 IN STRESS PERIOD    4
  ---------------------------------------------------------------------------

            1           2           3           4           5           6           7           8           9          10
 ........................................................................................................................
   1    9.998       9.198       8.356       7.453       6.485       5.450       4.307       3.015       1.571      2.2036E-03
   2    9.998       9.159       8.270       7.312       6.307       5.302       4.207       2.959       1.546      2.1656E-03
   3    9.998       9.086       8.099       7.007       5.882       4.981       4.014       2.856       1.502      2.1000E-03
   4    9.998       9.001       7.874       6.511       4.960       4.461       3.761       2.740       1.456      2.0318E-03
   5    9.997       8.954       7.712       5.945       2.029       3.859       3.581       2.678       1.435      2.0009E-03
   6    9.998       9.007       7.885       6.527       4.977       4.478       3.775       2.749       1.461      2.0394E-03
   7    9.998       9.100       8.125       7.042       5.922       5.020       4.046       2.879       1.514      2.1177E-03
   8    9.998       9.185       8.320       7.380       6.384       5.376       4.268       3.001       1.568      2.1986E-03
   9    9.998       9.244       8.445       7.575       6.623       5.582       4.413       3.088       1.608      2.2592E-03
  10    9.998       9.273       8.504       7.663       6.727       5.676       4.483       3.132       1.629      2.2910E-03
1
              HEAD IN LAYER   2 AT END OF TIME STEP  42 IN STRESS PERIOD    4
  ---------------------------------------------------------------------------

            1           2           3           4           5           6           7           8           9          10
 ........................................................................................................................
   1    9.998       9.193       8.347       7.441       6.471       5.436       4.294       3.005       1.564      4.3029E-03
   2    9.998       9.154       8.260       7.299       6.293       5.288       4.195       2.948       1.539      4.2331E-03
   3    9.998       9.081       8.089       6.994       5.868       4.967       4.001       2.846       1.495      4.1123E-03
   4    9.998       8.995       7.864       6.498       4.948       4.448       3.749       2.730       1.450      3.9863E-03
   5    9.997       8.948       7.701       5.930       2.458       3.850       3.569       2.668       1.429      3.9290E-03
   6    9.998       9.001       7.875       6.513       4.965       4.464       3.762       2.739       1.455      4.0004E-03
   7    9.998       9.095       8.116       7.030       5.908       5.006       4.034       2.869       1.507      4.1452E-03
   8    9.998       9.180       8.311       7.368       6.371       5.362       4.256       2.991       1.561      4.2941E-03
   9    9.998       9.239       8.437       7.564       6.610       5.569       4.401       3.078       1.602      4.4058E-03
  10    9.998       9.269       8.496       7.653       6.715       5.663       4.471       3.122       1.623      4.4640E-03
1
              HEAD IN LAYER   3 AT END OF TIME STEP  42 IN STRESS PERIOD    4
  ---------------------------------------------------------------------------

            1           2           3           4           5           6           7           8           9          10
 ........................................................................................................................
   1    9.998       9.190       8.341       7.432       6.461       5.426       4.283       2.996       1.558      4.6219E-03
   2    9.998       9.150       8.254       7.291       6.283       5.277       4.184       2.939       1.533      4.5471E-03
   3    9.998       9.077       8.083       6.985       5.857       4.956       3.991       2.837       1.489      4.4177E-03
   4    9.997       8.991       7.856       6.488       4.944       4.437       3.738       2.721       1.444      4.2827E-03
   5    9.997       8.944       7.694       5.925       2.821       3.849       3.559       2.659       1.423      4.2213E-03
   6    9.998       8.997       7.868       6.503       4.962       4.453       3.752       2.731       1.449      4.2980E-03
   7    9.998       9.091       8.109       7.021       5.897       4.995       4.023       2.860       1.501      4.4532E-03
   8    9.998       9.177       8.305       7.360       6.361       5.352       4.246       2.983       1.555      4.6129E-03
   9    9.998       9.236       8.431       7.556       6.601       5.559       4.391       3.070       1.596      4.7329E-03
  10    9.998       9.266       8.491       7.645       6.705       5.653       4.461       3.114       1.617      4.7953E-03
1
              HEAD IN LAYER   4 AT END OF TIME STEP  42 IN STRESS PERIOD    4
  ---------------------------------------------------------------------------

            1           2           3           4           5           6           7           8           9          10
 ........................................................................................................................
   1    9.998       9.188       8.338       7.428       6.455       5.420       4.278       2.992       1.555      4.6482E-03
   2    9.998       9.149       8.251       7.286       6.278       5.271       4.179       2.935       1.530      4.5729E-03
   3    9.998       9.075       8.079       6.980       5.851       4.950       3.985       2.832       1.486      4.4427E-03
   4    9.997       8.989       7.853       6.483       4.944       4.431       3.733       2.716       1.441      4.3068E-03
   5    9.997       8.942       7.690       5.925       2.995       3.849       3.554       2.655       1.420      4.2451E-03
   6    9.997       8.996       7.864       6.498       4.962       4.448       3.747       2.726       1.446      4.3223E-03
   7    9.998       9.089       8.106       7.016       5.892       4.990       4.018       2.856       1.498      4.4786E-03
   8    9.998       9.175       8.302       7.356       6.356       5.346       4.241       2.978       1.552      4.6394E-03
   9    9.998       9.235       8.428       7.552       6.596       5.553       4.386       3.066       1.593      4.7603E-03
  10    9.998       9.264       8.488       7.641       6.701       5.648       4.456       3.110       1.614      4.8232E-03

 HEAD WILL BE SAVED ON UNIT   51 AT END OF TIME STEP   42, STRESS PERIOD    4

 DRAWDOWN WILL BE SAVED ON UNIT   52 AT END OF TIME STEP   42, STRESS PERIOD    4
1
  VOLUMETRIC BUDGET FOR ENTIRE MODEL AT END OF TIME STEP   42, STRESS PERIOD   4
  ------------------------------------------------------------------------------

     CUMULATIVE VOLUMES      L**3       RATES FOR THIS TIME STEP      L**3/T
     ------------------                 ------------------------

           IN:                                      IN:
           ---                                      ---
             STORAGE =      486019.0938               STORAGE =         741.7226
       CONSTANT HEAD =           0.0000         CONSTANT HEAD =           0.0000
               WELLS =           0.0000                 WELLS =           0.0000
     HEAD DEP BOUNDS =       47417.1641       HEAD DEP BOUNDS =         525.8011

            TOTAL IN =      533436.2500              TOTAL IN =        1267.5237

          OUT:                                     OUT:
          ----                                     ----
             STORAGE =           0.0000               STORAGE =           0.0000
       CONSTANT HEAD =           0.0000         CONSTANT HEAD =           0.0000
               WELLS =       71000.0000                 WELLS =         500.0000
     HEAD DEP BOUNDS =      462438.2188       HEAD DEP BOUNDS =         767.5148

           TOTAL OUT =      533438.2500             TOTAL OUT =        1267.5149

            IN - OUT =          -2.0000              IN - OUT =       8.7891E-03

 PERCENT DISCREPANCY =          -0.00     PERCENT DISCREPANCY =           0.00






         TIME SUMMARY AT END OF TIME STEP   42 IN STRESS PERIOD    4
                    SECONDS     MINUTES      HOURS       DAYS        YEARS
                    -----------------------------------------------------------
   TIME STEP LENGTH  86400.      1440.0      24.000      1.0000     2.73785E-03
 STRESS PERIOD TIME 3.62880E+06  60480.      1008.0      42.000     0.11499    
         TOTAL TIME 2.09952E+07 3.49920E+05  5832.0      243.00     0.66530    
1
 
 SOLVING FOR HEAD 

 OUTPUT CONTROL FOR STRESS PERIOD    4   TIME STEP   43
    SAVE HEAD FOR ALL LAYERS
    SAVE DRAWDOWN FOR ALL LAYERS
    SAVE BUDGET
    PRINT HEAD FOR ALL LAYERS
    PRINT BUDGET
 UBDSV1 SAVING "         STORAGE" ON UNIT  53 AT TIME STEP 43, STRESS PERIOD   4
 UBDSV2 SAVING "   CONSTANT HEAD" ON UNIT  53 AT TIME STEP 43, STRESS PERIOD   4
 UBDSV1 SAVING "FLOW RIGHT FACE " ON UNIT  53 AT TIME STEP 43, STRESS PERIOD   4
 UBDSV1 SAVING "FLOW FRONT FACE " ON UNIT  53 AT TIME STEP 43, STRESS PERIOD   4
 UBDSV1 SAVING "FLOW LOWER FACE " ON UNIT  53 AT TIME STEP 43, STRESS PERIOD   4
1
              HEAD IN LAYER   1 AT END OF TIME STEP  43 IN STRESS PERIOD    4
  ---------------------------------------------------------------------------

            1           2           3           4           5           6           7           8           9          10
 ........................................................................................................................
   1    9.998       9.194       8.349       7.442       6.472       5.438       4.296       3.007       1.566      2.1964E-03
   2    9.998       9.155       8.262       7.301       6.295       5.289       4.196       2.950       1.541      2.1584E-03
   3    9.998       9.082       8.091       6.996       5.870       4.969       4.002       2.847       1.497      2.0926E-03
   4    9.998       8.997       7.866       6.501       4.948       4.448       3.749       2.731       1.451      2.0243E-03
   5    9.997       8.949       7.705       5.934       2.015       3.846       3.569       2.669       1.430      1.9934E-03
   6    9.998       9.003       7.877       6.516       4.965       4.465       3.763       2.741       1.456      2.0320E-03
   7    9.998       9.096       8.118       7.032       5.910       5.008       4.035       2.870       1.509      2.1106E-03
   8    9.998       9.181       8.313       7.370       6.373       5.364       4.257       2.993       1.563      2.1915E-03
   9    9.998       9.240       8.438       7.565       6.612       5.570       4.403       3.080       1.604      2.2525E-03
  10    9.998       9.270       8.498       7.654       6.716       5.664       4.473       3.124       1.625      2.2844E-03
1
              HEAD IN LAYER   2 AT END OF TIME STEP  43 IN STRESS PERIOD    4
  ---------------------------------------------------------------------------

            1           2           3           4           5           6           7           8           9          10
 ........................................................................................................................
   1    9.998       9.189       8.340       7.430       6.459       5.424       4.283       2.996       1.560      4.2898E-03
   2    9.998       9.150       8.253       7.289       6.281       5.276       4.183       2.940       1.534      4.2198E-03
   3    9.998       9.077       8.082       6.983       5.855       4.955       3.990       2.837       1.491      4.0989E-03
   4    9.997       8.991       7.856       6.487       4.935       4.435       3.737       2.721       1.445      3.9727E-03
   5    9.997       8.944       7.694       5.919       2.445       3.837       3.557       2.659       1.424      3.9154E-03
   6    9.998       8.997       7.867       6.502       4.953       4.451       3.751       2.731       1.450      3.9870E-03
   7    9.998       9.091       8.109       7.020       5.896       4.994       4.022       2.860       1.503      4.1322E-03
   8    9.998       9.177       8.304       7.359       6.360       5.350       4.245       2.983       1.557      4.2815E-03
   9    9.998       9.236       8.430       7.554       6.599       5.557       4.391       3.070       1.597      4.3936E-03
  10    9.998       9.265       8.490       7.643       6.704       5.652       4.461       3.114       1.618      4.4520E-03
1
              HEAD IN LAYER   3 AT END OF TIME STEP  43 IN STRESS PERIOD    4
  ---------------------------------------------------------------------------

            1           2           3           4           5           6           7           8           9          10
 ........................................................................................................................
   1    9.998       9.186       8.334       7.422       6.449       5.413       4.272       2.987       1.554      4.6079E-03
   2    9.998       9.146       8.246       7.280       6.271       5.264       4.173       2.931       1.528      4.5329E-03
   3    9.998       9.073       8.075       6.974       5.844       4.943       3.979       2.828       1.485      4.4033E-03
   4    9.997       8.987       7.849       6.477       4.931       4.424       3.726       2.712       1.439      4.2682E-03
   5    9.997       8.940       7.686       5.914       2.808       3.835       3.547       2.650       1.418      4.2068E-03
   6    9.997       8.993       7.860       6.493       4.949       4.441       3.741       2.722       1.444      4.2837E-03
   7    9.998       9.087       8.102       7.011       5.886       4.983       4.012       2.851       1.497      4.4393E-03
   8    9.998       9.173       8.298       7.350       6.350       5.340       4.235       2.974       1.551      4.5995E-03
   9    9.998       9.233       8.424       7.547       6.590       5.547       4.381       3.062       1.591      4.7199E-03
  10    9.998       9.262       8.484       7.636       6.695       5.642       4.451       3.106       1.612      4.7825E-03
1
              HEAD IN LAYER   4 AT END OF TIME STEP  43 IN STRESS PERIOD    4
  ---------------------------------------------------------------------------

            1           2           3           4           5           6           7           8           9          10
 ........................................................................................................................
   1    9.998       9.184       8.331       7.417       6.443       5.408       4.267       2.983       1.551      4.6342E-03
   2    9.998       9.145       8.243       7.276       6.266       5.259       4.168       2.926       1.525      4.5587E-03
   3    9.998       9.071       8.072       6.969       5.839       4.938       3.974       2.824       1.482      4.4283E-03
   4    9.997       8.985       7.845       6.472       4.931       4.419       3.721       2.708       1.436      4.2923E-03
   5    9.997       8.938       7.682       5.914       2.981       3.836       3.542       2.646       1.415      4.2306E-03
   6    9.997       8.992       7.857       6.488       4.949       4.435       3.735       2.718       1.441      4.3080E-03
   7    9.998       9.086       8.099       7.006       5.880       4.978       4.007       2.847       1.494      4.4647E-03
   8    9.998       9.172       8.295       7.346       6.345       5.335       4.230       2.970       1.548      4.6260E-03
   9    9.998       9.231       8.421       7.543       6.585       5.542       4.376       3.058       1.588      4.7473E-03
  10    9.998       9.261       8.481       7.632       6.690       5.637       4.446       3.102       1.610      4.8104E-03

 HEAD WILL BE SAVED ON UNIT   51 AT END OF TIME STEP   43, STRESS PERIOD    4

 DRAWDOWN WILL BE SAVED ON UNIT   52 AT END OF TIME STEP   43, STRESS PERIOD    4
1
  VOLUMETRIC BUDGET FOR ENTIRE MODEL AT END OF TIME STEP   43, STRESS PERIOD   4
  ------------------------------------------------------------------------------

     CUMULATIVE VOLUMES      L**3       RATES FOR THIS TIME STEP      L**3/T
     ------------------                 ------------------------

           IN:                                      IN:
           ---                                      ---
             STORAGE =      486756.1562               STORAGE =         737.0683
       CONSTANT HEAD =           0.0000         CONSTANT HEAD =           0.0000
               WELLS =           0.0000                 WELLS =           0.0000
     HEAD DEP BOUNDS =       47945.2266       HEAD DEP BOUNDS =         528.0620

            TOTAL IN =      534701.3750              TOTAL IN =        1265.1304

          OUT:                                     OUT:
          ----                                     ----
             STORAGE =           0.0000               STORAGE =           0.0000
       CONSTANT HEAD =           0.0000         CONSTANT HEAD =           0.0000
               WELLS =       71500.0000                 WELLS =         500.0000
     HEAD DEP BOUNDS =      463203.3438       HEAD DEP BOUNDS =         765.1172

           TOTAL OUT =      534703.3750             TOTAL OUT =        1265.1172

            IN - OUT =          -2.0000              IN - OUT =       1.3184E-02

 PERCENT DISCREPANCY =          -0.00     PERCENT DISCREPANCY =           0.00






         TIME SUMMARY AT END OF TIME STEP   43 IN STRESS PERIOD    4
                    SECONDS     MINUTES      HOURS       DAYS        YEARS
                    -----------------------------------------------------------
   TIME STEP LENGTH  86400.      1440.0      24.000      1.0000     2.73785E-03
 STRESS PERIOD TIME 3.71520E+06  61920.      1032.0      43.000     0.11773    
         TOTAL TIME 2.10816E+07 3.51360E+05  5856.0      244.00     0.66804    
1
 
 SOLVING FOR HEAD 

 OUTPUT CONTROL FOR STRESS PERIOD    4   TIME STEP   44
    SAVE HEAD FOR ALL LAYERS
    SAVE DRAWDOWN FOR ALL LAYERS
    SAVE BUDGET
    PRINT HEAD FOR ALL LAYERS
    PRINT BUDGET
 UBDSV1 SAVING "         STORAGE" ON UNIT  53 AT TIME STEP 44, STRESS PERIOD   4
 UBDSV2 SAVING "   CONSTANT HEAD" ON UNIT  53 AT TIME STEP 44, STRESS PERIOD   4
 UBDSV1 SAVING "FLOW RIGHT FACE " ON UNIT  53 AT TIME STEP 44, STRESS PERIOD   4
 UBDSV1 SAVING "FLOW FRONT FACE " ON UNIT  53 AT TIME STEP 44, STRESS PERIOD   4
 UBDSV1 SAVING "FLOW LOWER FACE " ON UNIT  53 AT TIME STEP 44, STRESS PERIOD   4
1
              HEAD IN LAYER   1 AT END OF TIME STEP  44 IN STRESS PERIOD    4
  ---------------------------------------------------------------------------

            1           2           3           4           5           6           7           8           9          10
 ........................................................................................................................
   1    9.998       9.191       8.341       7.432       6.461       5.426       4.284       2.998       1.562      2.1892E-03
   2    9.998       9.151       8.254       7.291       6.283       5.277       4.185       2.941       1.536      2.1511E-03
   3    9.998       9.078       8.084       6.985       5.857       4.956       3.991       2.838       1.492      2.0854E-03
   4    9.998       8.993       7.858       6.490       4.935       4.435       3.738       2.722       1.446      2.0171E-03
   5    9.997       8.945       7.697       5.923       2.002       3.833       3.558       2.660       1.425      1.9860E-03
   6    9.998       8.999       7.870       6.505       4.952       4.452       3.752       2.732       1.452      2.0248E-03
   7    9.998       9.092       8.110       7.022       5.898       4.995       4.024       2.861       1.504      2.1035E-03
   8    9.998       9.178       8.305       7.360       6.361       5.352       4.247       2.984       1.558      2.1847E-03
   9    9.998       9.237       8.431       7.556       6.601       5.559       4.392       3.072       1.599      2.2460E-03
  10    9.998       9.266       8.491       7.645       6.705       5.653       4.463       3.116       1.620      2.2778E-03
1
              HEAD IN LAYER   2 AT END OF TIME STEP  44 IN STRESS PERIOD    4
  ---------------------------------------------------------------------------

            1           2           3           4           5           6           7           8           9          10
 ........................................................................................................................
   1    9.998       9.186       8.333       7.420       6.447       5.412       4.272       2.988       1.555      4.2767E-03
   2    9.998       9.146       8.245       7.279       6.269       5.263       4.172       2.931       1.530      4.2066E-03
   3    9.998       9.073       8.074       6.973       5.843       4.942       3.978       2.828       1.486      4.0855E-03
   4    9.997       8.987       7.848       6.476       4.922       4.422       3.725       2.712       1.440      3.9592E-03
   5    9.997       8.940       7.686       5.908       2.431       3.824       3.546       2.650       1.419      3.9018E-03
   6    9.997       8.993       7.860       6.492       4.940       4.439       3.739       2.722       1.445      3.9737E-03
   7    9.998       9.087       8.101       7.010       5.884       4.982       4.011       2.852       1.498      4.1192E-03
   8    9.998       9.173       8.297       7.349       6.348       5.339       4.235       2.975       1.552      4.2690E-03
   9    9.998       9.232       8.423       7.545       6.589       5.546       4.380       3.062       1.593      4.3815E-03
  10    9.998       9.262       8.483       7.634       6.693       5.641       4.451       3.107       1.614      4.4401E-03
1
              HEAD IN LAYER   3 AT END OF TIME STEP  44 IN STRESS PERIOD    4
  ---------------------------------------------------------------------------

            1           2           3           4           5           6           7           8           9          10
 ........................................................................................................................
   1    9.998       9.182       8.326       7.412       6.437       5.401       4.261       2.979       1.549      4.5940E-03
   2    9.998       9.143       8.239       7.270       6.259       5.252       4.162       2.922       1.524      4.5189E-03
   3    9.998       9.069       8.067       6.964       5.832       4.931       3.968       2.819       1.480      4.3891E-03
   4    9.997       8.983       7.841       6.466       4.919       4.411       3.715       2.703       1.434      4.2538E-03
   5    9.997       8.936       7.678       5.904       2.794       3.822       3.536       2.641       1.413      4.1924E-03
   6    9.997       8.990       7.853       6.482       4.937       4.428       3.729       2.713       1.439      4.2695E-03
   7    9.998       9.084       8.095       7.001       5.874       4.971       4.001       2.843       1.492      4.4256E-03
   8    9.998       9.170       8.291       7.341       6.338       5.328       4.225       2.966       1.546      4.5862E-03
   9    9.998       9.229       8.417       7.537       6.579       5.536       4.371       3.054       1.587      4.7070E-03
  10    9.998       9.259       8.478       7.626       6.684       5.631       4.441       3.098       1.608      4.7699E-03
1
              HEAD IN LAYER   4 AT END OF TIME STEP  44 IN STRESS PERIOD    4
  ---------------------------------------------------------------------------

            1           2           3           4           5           6           7           8           9          10
 ........................................................................................................................
   1    9.998       9.181       8.323       7.407       6.432       5.396       4.256       2.975       1.546      4.6202E-03
   2    9.998       9.141       8.236       7.265       6.254       5.247       4.157       2.918       1.521      4.5446E-03
   3    9.998       9.067       8.064       6.959       5.827       4.925       3.963       2.815       1.477      4.4140E-03
   4    9.997       8.981       7.837       6.461       4.919       4.406       3.710       2.699       1.431      4.2778E-03
   5    9.997       8.934       7.675       5.903       2.968       3.823       3.531       2.637       1.410      4.2161E-03
   6    9.997       8.988       7.849       6.477       4.937       4.423       3.724       2.709       1.437      4.2937E-03
   7    9.998       9.082       8.092       6.996       5.869       4.966       3.996       2.839       1.489      4.4509E-03
   8    9.998       9.168       8.288       7.336       6.333       5.323       4.220       2.962       1.543      4.6127E-03
   9    9.998       9.228       8.414       7.533       6.574       5.531       4.366       3.050       1.584      4.7343E-03
  10    9.998       9.257       8.475       7.623       6.679       5.626       4.436       3.094       1.605      4.7977E-03

 HEAD WILL BE SAVED ON UNIT   51 AT END OF TIME STEP   44, STRESS PERIOD    4

 DRAWDOWN WILL BE SAVED ON UNIT   52 AT END OF TIME STEP   44, STRESS PERIOD    4
1
  VOLUMETRIC BUDGET FOR ENTIRE MODEL AT END OF TIME STEP   44, STRESS PERIOD   4
  ------------------------------------------------------------------------------

     CUMULATIVE VOLUMES      L**3       RATES FOR THIS TIME STEP      L**3/T
     ------------------                 ------------------------

           IN:                                      IN:
           ---                                      ---
             STORAGE =      487488.5938               STORAGE =         732.4335
       CONSTANT HEAD =           0.0000         CONSTANT HEAD =           0.0000
               WELLS =           0.0000                 WELLS =           0.0000
     HEAD DEP BOUNDS =       48475.5273       HEAD DEP BOUNDS =         530.3026

            TOTAL IN =      535964.1250              TOTAL IN =        1262.7361

          OUT:                                     OUT:
          ----                                     ----
             STORAGE =           0.0000               STORAGE =           0.0000
       CONSTANT HEAD =           0.0000         CONSTANT HEAD =           0.0000
               WELLS =       72000.0000                 WELLS =         500.0000
     HEAD DEP BOUNDS =      463966.0938       HEAD DEP BOUNDS =         762.7369

           TOTAL OUT =      535966.1250             TOTAL OUT =        1262.7369

            IN - OUT =          -2.0000              IN - OUT =      -8.5449E-04

 PERCENT DISCREPANCY =          -0.00     PERCENT DISCREPANCY =          -0.00






         TIME SUMMARY AT END OF TIME STEP   44 IN STRESS PERIOD    4
                    SECONDS     MINUTES      HOURS       DAYS        YEARS
                    -----------------------------------------------------------
   TIME STEP LENGTH  86400.      1440.0      24.000      1.0000     2.73785E-03
 STRESS PERIOD TIME 3.80160E+06  63360.      1056.0      44.000     0.12047    
         TOTAL TIME 2.11680E+07 3.52800E+05  5880.0      245.00     0.67077    
1
 
 SOLVING FOR HEAD 

 OUTPUT CONTROL FOR STRESS PERIOD    4   TIME STEP   45
    SAVE HEAD FOR ALL LAYERS
    SAVE DRAWDOWN FOR ALL LAYERS
    SAVE BUDGET
    PRINT HEAD FOR ALL LAYERS
    PRINT BUDGET
 UBDSV1 SAVING "         STORAGE" ON UNIT  53 AT TIME STEP 45, STRESS PERIOD   4
 UBDSV2 SAVING "   CONSTANT HEAD" ON UNIT  53 AT TIME STEP 45, STRESS PERIOD   4
 UBDSV1 SAVING "FLOW RIGHT FACE " ON UNIT  53 AT TIME STEP 45, STRESS PERIOD   4
 UBDSV1 SAVING "FLOW FRONT FACE " ON UNIT  53 AT TIME STEP 45, STRESS PERIOD   4
 UBDSV1 SAVING "FLOW LOWER FACE " ON UNIT  53 AT TIME STEP 45, STRESS PERIOD   4
1
              HEAD IN LAYER   1 AT END OF TIME STEP  45 IN STRESS PERIOD    4
  ---------------------------------------------------------------------------

            1           2           3           4           5           6           7           8           9          10
 ........................................................................................................................
   1    9.998       9.187       8.334       7.422       6.449       5.414       4.273       2.989       1.557      2.1822E-03
   2    9.998       9.147       8.247       7.281       6.271       5.265       4.174       2.932       1.531      2.1440E-03
   3    9.998       9.074       8.076       6.975       5.845       4.943       3.979       2.829       1.487      2.0783E-03
   4    9.998       8.989       7.850       6.479       4.922       4.422       3.726       2.713       1.441      2.0097E-03
   5    9.997       8.941       7.689       5.912       1.988       3.820       3.546       2.651       1.421      1.9788E-03
   6    9.998       8.995       7.862       6.495       4.940       4.439       3.740       2.723       1.447      2.0176E-03
   7    9.998       9.088       8.103       7.012       5.886       4.983       4.013       2.853       1.500      2.0965E-03
   8    9.998       9.174       8.298       7.351       6.350       5.340       4.236       2.976       1.554      2.1779E-03
   9    9.998       9.233       8.424       7.547       6.590       5.548       4.382       3.064       1.595      2.2394E-03
  10    9.998       9.263       8.484       7.636       6.695       5.642       4.453       3.109       1.616      2.2713E-03
1
              HEAD IN LAYER   2 AT END OF TIME STEP  45 IN STRESS PERIOD    4
  ---------------------------------------------------------------------------

            1           2           3           4           5           6           7           8           9          10
 ........................................................................................................................
   1    9.998       9.182       8.325       7.410       6.435       5.400       4.261       2.979       1.550      4.2637E-03
   2    9.998       9.142       8.238       7.268       6.257       5.251       4.161       2.922       1.525      4.1935E-03
   3    9.998       9.069       8.067       6.962       5.831       4.929       3.967       2.819       1.481      4.0722E-03
   4    9.997       8.983       7.840       6.466       4.910       4.409       3.714       2.703       1.435      3.9458E-03
   5    9.997       8.936       7.678       5.898       2.418       3.811       3.534       2.641       1.414      3.8884E-03
   6    9.997       8.989       7.852       6.481       4.928       4.426       3.728       2.713       1.440      3.9605E-03
   7    9.998       9.083       8.094       7.000       5.872       4.970       4.000       2.843       1.493      4.1064E-03
   8    9.998       9.169       8.290       7.339       6.337       5.327       4.224       2.967       1.548      4.2565E-03
   9    9.998       9.229       8.416       7.536       6.578       5.535       4.370       3.055       1.588      4.3695E-03
  10    9.998       9.258       8.477       7.625       6.683       5.630       4.441       3.099       1.610      4.4283E-03
1
              HEAD IN LAYER   3 AT END OF TIME STEP  45 IN STRESS PERIOD    4
  ---------------------------------------------------------------------------

            1           2           3           4           5           6           7           8           9          10
 ........................................................................................................................
   1    9.998       9.178       8.319       7.401       6.425       5.389       4.250       2.971       1.544      4.5802E-03
   2    9.998       9.139       8.232       7.260       6.247       5.240       4.151       2.914       1.519      4.5049E-03
   3    9.998       9.065       8.060       6.953       5.820       4.918       3.957       2.811       1.475      4.3749E-03
   4    9.997       8.979       7.833       6.456       4.906       4.398       3.703       2.694       1.429      4.2395E-03
   5    9.997       8.932       7.671       5.893       2.781       3.810       3.524       2.633       1.409      4.1781E-03
   6    9.997       8.986       7.845       6.472       4.924       4.416       3.718       2.705       1.435      4.2554E-03
   7    9.998       9.080       8.088       6.991       5.862       4.959       3.990       2.835       1.487      4.4119E-03
   8    9.998       9.166       8.284       7.331       6.327       5.317       4.214       2.958       1.542      4.5730E-03
   9    9.998       9.226       8.410       7.528       6.568       5.525       4.361       3.046       1.583      4.6942E-03
  10    9.998       9.255       8.471       7.617       6.673       5.620       4.431       3.091       1.604      4.7573E-03
1
              HEAD IN LAYER   4 AT END OF TIME STEP  45 IN STRESS PERIOD    4
  ---------------------------------------------------------------------------

            1           2           3           4           5           6           7           8           9          10
 ........................................................................................................................
   1    9.998       9.177       8.316       7.397       6.420       5.384       4.245       2.966       1.541      4.6063E-03
   2    9.998       9.137       8.228       7.255       6.242       5.234       4.145       2.909       1.516      4.5306E-03
   3    9.998       9.063       8.057       6.948       5.815       4.913       3.951       2.806       1.472      4.3998E-03
   4    9.997       8.978       7.830       6.451       4.906       4.393       3.698       2.690       1.426      4.2635E-03
   5    9.997       8.930       7.667       5.893       2.955       3.811       3.519       2.628       1.406      4.2018E-03
   6    9.997       8.984       7.842       6.467       4.924       4.410       3.713       2.700       1.432      4.2796E-03
   7    9.998       9.078       8.084       6.986       5.857       4.954       3.985       2.830       1.485      4.4371E-03
   8    9.998       9.164       8.281       7.327       6.322       5.312       4.209       2.954       1.539      4.5994E-03
   9    9.998       9.224       8.408       7.524       6.564       5.520       4.356       3.042       1.580      4.7215E-03
  10    9.998       9.254       8.468       7.614       6.669       5.615       4.426       3.087       1.601      4.7850E-03

 HEAD WILL BE SAVED ON UNIT   51 AT END OF TIME STEP   45, STRESS PERIOD    4

 DRAWDOWN WILL BE SAVED ON UNIT   52 AT END OF TIME STEP   45, STRESS PERIOD    4
1
  VOLUMETRIC BUDGET FOR ENTIRE MODEL AT END OF TIME STEP   45, STRESS PERIOD   4
  ------------------------------------------------------------------------------

     CUMULATIVE VOLUMES      L**3       RATES FOR THIS TIME STEP      L**3/T
     ------------------                 ------------------------

           IN:                                      IN:
           ---                                      ---
             STORAGE =      488216.4375               STORAGE =         727.8333
       CONSTANT HEAD =           0.0000         CONSTANT HEAD =           0.0000
               WELLS =           0.0000                 WELLS =           0.0000
     HEAD DEP BOUNDS =       49008.0781       HEAD DEP BOUNDS =         532.5496

            TOTAL IN =      537224.5000              TOTAL IN =        1260.3829

          OUT:                                     OUT:
          ----                                     ----
             STORAGE =           0.0000               STORAGE =           0.0000
       CONSTANT HEAD =           0.0000         CONSTANT HEAD =           0.0000
               WELLS =       72500.0000                 WELLS =         500.0000
     HEAD DEP BOUNDS =      464726.4688       HEAD DEP BOUNDS =         760.3722

           TOTAL OUT =      537226.5000             TOTAL OUT =        1260.3722

            IN - OUT =          -2.0000              IN - OUT =       1.0742E-02

 PERCENT DISCREPANCY =          -0.00     PERCENT DISCREPANCY =           0.00






         TIME SUMMARY AT END OF TIME STEP   45 IN STRESS PERIOD    4
                    SECONDS     MINUTES      HOURS       DAYS        YEARS
                    -----------------------------------------------------------
   TIME STEP LENGTH  86400.      1440.0      24.000      1.0000     2.73785E-03
 STRESS PERIOD TIME 3.88800E+06  64800.      1080.0      45.000     0.12320    
         TOTAL TIME 2.12544E+07 3.54240E+05  5904.0      246.00     0.67351    
1
 
 SOLVING FOR HEAD 

 OUTPUT CONTROL FOR STRESS PERIOD    4   TIME STEP   46
    SAVE HEAD FOR ALL LAYERS
    SAVE DRAWDOWN FOR ALL LAYERS
    SAVE BUDGET
    PRINT HEAD FOR ALL LAYERS
    PRINT BUDGET
 UBDSV1 SAVING "         STORAGE" ON UNIT  53 AT TIME STEP 46, STRESS PERIOD   4
 UBDSV2 SAVING "   CONSTANT HEAD" ON UNIT  53 AT TIME STEP 46, STRESS PERIOD   4
 UBDSV1 SAVING "FLOW RIGHT FACE " ON UNIT  53 AT TIME STEP 46, STRESS PERIOD   4
 UBDSV1 SAVING "FLOW FRONT FACE " ON UNIT  53 AT TIME STEP 46, STRESS PERIOD   4
 UBDSV1 SAVING "FLOW LOWER FACE " ON UNIT  53 AT TIME STEP 46, STRESS PERIOD   4
1
              HEAD IN LAYER   1 AT END OF TIME STEP  46 IN STRESS PERIOD    4
  ---------------------------------------------------------------------------

            1           2           3           4           5           6           7           8           9          10
 ........................................................................................................................
   1    9.998       9.183       8.327       7.412       6.437       5.401       4.262       2.981       1.552      2.1750E-03
   2    9.998       9.143       8.240       7.270       6.259       5.252       4.162       2.924       1.527      2.1368E-03
   3    9.998       9.070       8.068       6.965       5.833       4.931       3.968       2.821       1.483      2.0710E-03
   4    9.998       8.985       7.843       6.468       4.910       4.409       3.714       2.704       1.437      2.0025E-03
   5    9.997       8.937       7.681       5.901       1.975       3.807       3.534       2.642       1.416      1.9715E-03
   6    9.998       8.991       7.854       6.484       4.928       4.427       3.729       2.714       1.442      2.0105E-03
   7    9.998       9.085       8.096       7.002       5.874       4.971       4.002       2.845       1.495      2.0894E-03
   8    9.998       9.170       8.291       7.341       6.339       5.329       4.226       2.968       1.549      2.1712E-03
   9    9.998       9.230       8.418       7.537       6.579       5.537       4.372       3.056       1.590      2.2328E-03
  10    9.998       9.259       8.478       7.627       6.684       5.631       4.443       3.101       1.612      2.2649E-03
1
              HEAD IN LAYER   2 AT END OF TIME STEP  46 IN STRESS PERIOD    4
  ---------------------------------------------------------------------------

            1           2           3           4           5           6           7           8           9          10
 ........................................................................................................................
   1    9.998       9.178       8.318       7.400       6.423       5.388       4.250       2.971       1.546      4.2508E-03
   2    9.998       9.138       8.231       7.258       6.245       5.239       4.150       2.914       1.520      4.1805E-03
   3    9.998       9.065       8.059       6.952       5.819       4.917       3.956       2.811       1.476      4.0590E-03
   4    9.997       8.979       7.833       6.455       4.897       4.396       3.702       2.694       1.430      3.9324E-03
   5    9.997       8.932       7.671       5.887       2.404       3.798       3.523       2.632       1.409      3.8751E-03
   6    9.997       8.986       7.845       6.471       4.915       4.413       3.717       2.705       1.436      3.9474E-03
   7    9.998       9.080       8.087       6.990       5.861       4.958       3.990       2.835       1.489      4.0936E-03
   8    9.998       9.166       8.283       7.330       6.326       5.316       4.214       2.959       1.543      4.2442E-03
   9    9.998       9.225       8.409       7.527       6.567       5.524       4.360       3.047       1.584      4.3575E-03
  10    9.998       9.255       8.470       7.616       6.672       5.619       4.431       3.091       1.605      4.4165E-03
1
              HEAD IN LAYER   3 AT END OF TIME STEP  46 IN STRESS PERIOD    4
  ---------------------------------------------------------------------------

            1           2           3           4           5           6           7           8           9          10
 ........................................................................................................................
   1    9.998       9.175       8.312       7.391       6.413       5.377       4.239       2.962       1.540      4.5664E-03
   2    9.998       9.135       8.224       7.250       6.235       5.228       4.140       2.905       1.514      4.4911E-03
   3    9.998       9.061       8.052       6.943       5.808       4.906       3.945       2.802       1.470      4.3609E-03
   4    9.997       8.976       7.826       6.445       4.894       4.386       3.692       2.686       1.425      4.2253E-03
   5    9.997       8.928       7.663       5.882       2.768       3.797       3.513       2.624       1.404      4.1639E-03
   6    9.997       8.982       7.838       6.461       4.912       4.403       3.707       2.696       1.430      4.2415E-03
   7    9.998       9.076       8.080       6.981       5.850       4.947       3.980       2.826       1.483      4.3983E-03
   8    9.998       9.162       8.277       7.321       6.316       5.305       4.204       2.950       1.537      4.5598E-03
   9    9.998       9.222       8.404       7.519       6.558       5.514       4.351       3.039       1.578      4.6814E-03
  10    9.998       9.252       8.464       7.608       6.663       5.609       4.421       3.083       1.600      4.7447E-03
1
              HEAD IN LAYER   4 AT END OF TIME STEP  46 IN STRESS PERIOD    4
  ---------------------------------------------------------------------------

            1           2           3           4           5           6           7           8           9          10
 ........................................................................................................................
   1    9.998       9.173       8.309       7.387       6.408       5.372       4.234       2.958       1.537      4.5926E-03
   2    9.998       9.133       8.221       7.245       6.230       5.222       4.134       2.901       1.511      4.5167E-03
   3    9.998       9.060       8.049       6.938       5.803       4.900       3.940       2.798       1.467      4.3857E-03
   4    9.997       8.974       7.822       6.440       4.894       4.380       3.687       2.681       1.422      4.2492E-03
   5    9.997       8.926       7.659       5.882       2.942       3.798       3.508       2.620       1.401      4.1876E-03
   6    9.997       8.980       7.834       6.457       4.912       4.398       3.702       2.692       1.427      4.2656E-03
   7    9.998       9.074       8.077       6.976       5.845       4.942       3.975       2.822       1.480      4.4235E-03
   8    9.998       9.161       8.274       7.317       6.311       5.300       4.199       2.946       1.535      4.5862E-03
   9    9.998       9.221       8.401       7.515       6.553       5.509       4.346       3.034       1.576      4.7087E-03
  10    9.998       9.250       8.462       7.604       6.658       5.604       4.417       3.079       1.597      4.7725E-03

 HEAD WILL BE SAVED ON UNIT   51 AT END OF TIME STEP   46, STRESS PERIOD    4

 DRAWDOWN WILL BE SAVED ON UNIT   52 AT END OF TIME STEP   46, STRESS PERIOD    4
1
  VOLUMETRIC BUDGET FOR ENTIRE MODEL AT END OF TIME STEP   46, STRESS PERIOD   4
  ------------------------------------------------------------------------------

     CUMULATIVE VOLUMES      L**3       RATES FOR THIS TIME STEP      L**3/T
     ------------------                 ------------------------

           IN:                                      IN:
           ---                                      ---
             STORAGE =      488939.6875               STORAGE =         723.2567
       CONSTANT HEAD =           0.0000         CONSTANT HEAD =           0.0000
               WELLS =           0.0000                 WELLS =           0.0000
     HEAD DEP BOUNDS =       49542.8359       HEAD DEP BOUNDS =         534.7561

            TOTAL IN =      538482.5000              TOTAL IN =        1258.0127

          OUT:                                     OUT:
          ----                                     ----
             STORAGE =           0.0000               STORAGE =           0.0000
       CONSTANT HEAD =           0.0000         CONSTANT HEAD =           0.0000
               WELLS =       73000.0000                 WELLS =         500.0000
     HEAD DEP BOUNDS =      465484.5000       HEAD DEP BOUNDS =         758.0212

           TOTAL OUT =      538484.5000             TOTAL OUT =        1258.0212

            IN - OUT =          -2.0000              IN - OUT =      -8.5449E-03

 PERCENT DISCREPANCY =          -0.00     PERCENT DISCREPANCY =          -0.00






         TIME SUMMARY AT END OF TIME STEP   46 IN STRESS PERIOD    4
                    SECONDS     MINUTES      HOURS       DAYS        YEARS
                    -----------------------------------------------------------
   TIME STEP LENGTH  86400.      1440.0      24.000      1.0000     2.73785E-03
 STRESS PERIOD TIME 3.97440E+06  66240.      1104.0      46.000     0.12594    
         TOTAL TIME 2.13408E+07 3.55680E+05  5928.0      247.00     0.67625    
1
 
 SOLVING FOR HEAD 

 OUTPUT CONTROL FOR STRESS PERIOD    4   TIME STEP   47
    SAVE HEAD FOR ALL LAYERS
    SAVE DRAWDOWN FOR ALL LAYERS
    SAVE BUDGET
    PRINT HEAD FOR ALL LAYERS
    PRINT BUDGET
 UBDSV1 SAVING "         STORAGE" ON UNIT  53 AT TIME STEP 47, STRESS PERIOD   4
 UBDSV2 SAVING "   CONSTANT HEAD" ON UNIT  53 AT TIME STEP 47, STRESS PERIOD   4
 UBDSV1 SAVING "FLOW RIGHT FACE " ON UNIT  53 AT TIME STEP 47, STRESS PERIOD   4
 UBDSV1 SAVING "FLOW FRONT FACE " ON UNIT  53 AT TIME STEP 47, STRESS PERIOD   4
 UBDSV1 SAVING "FLOW LOWER FACE " ON UNIT  53 AT TIME STEP 47, STRESS PERIOD   4
1
              HEAD IN LAYER   1 AT END OF TIME STEP  47 IN STRESS PERIOD    4
  ---------------------------------------------------------------------------

            1           2           3           4           5           6           7           8           9          10
 ........................................................................................................................
   1    9.998       9.179       8.319       7.402       6.425       5.389       4.251       2.973       1.547      2.1682E-03
   2    9.998       9.140       8.232       7.260       6.247       5.240       4.151       2.915       1.522      2.1298E-03
   3    9.998       9.066       8.061       6.954       5.820       4.918       3.957       2.812       1.478      2.0639E-03
   4    9.998       8.981       7.835       6.458       4.897       4.397       3.703       2.695       1.432      1.9954E-03
   5    9.997       8.934       7.674       5.891       1.962       3.794       3.523       2.633       1.411      1.9644E-03
   6    9.998       8.987       7.847       6.474       4.915       4.414       3.718       2.706       1.437      2.0035E-03
   7    9.998       9.081       8.089       6.992       5.863       4.959       3.991       2.836       1.490      2.0827E-03
   8    9.998       9.167       8.284       7.331       6.327       5.317       4.215       2.960       1.545      2.1646E-03
   9    9.998       9.226       8.411       7.528       6.568       5.525       4.362       3.049       1.586      2.2262E-03
  10    9.998       9.256       8.471       7.617       6.674       5.620       4.433       3.093       1.608      2.2585E-03
1
              HEAD IN LAYER   2 AT END OF TIME STEP  47 IN STRESS PERIOD    4
  ---------------------------------------------------------------------------

            1           2           3           4           5           6           7           8           9          10
 ........................................................................................................................
   1    9.998       9.174       8.311       7.390       6.412       5.376       4.239       2.963       1.541      4.2380E-03
   2    9.998       9.134       8.223       7.248       6.234       5.226       4.139       2.905       1.515      4.1676E-03
   3    9.998       9.061       8.052       6.942       5.806       4.905       3.944       2.802       1.471      4.0459E-03
   4    9.997       8.975       7.825       6.444       4.885       4.383       3.691       2.686       1.426      3.9192E-03
   5    9.997       8.928       7.663       5.876       2.391       3.785       3.511       2.624       1.405      3.8619E-03
   6    9.997       8.982       7.837       6.461       4.903       4.401       3.706       2.696       1.431      3.9344E-03
   7    9.998       9.076       8.080       6.980       5.849       4.946       3.979       2.827       1.484      4.0809E-03
   8    9.998       9.162       8.276       7.320       6.315       5.304       4.203       2.951       1.539      4.2320E-03
   9    9.998       9.222       8.403       7.517       6.556       5.513       4.350       3.039       1.580      4.3456E-03
  10    9.998       9.251       8.463       7.607       6.661       5.608       4.421       3.084       1.601      4.4049E-03
1
              HEAD IN LAYER   3 AT END OF TIME STEP  47 IN STRESS PERIOD    4
  ---------------------------------------------------------------------------

            1           2           3           4           5           6           7           8           9          10
 ........................................................................................................................
   1    9.998       9.171       8.304       7.381       6.402       5.365       4.229       2.954       1.535      4.5528E-03
   2    9.998       9.131       8.217       7.239       6.223       5.216       4.129       2.897       1.510      4.4773E-03
   3    9.998       9.057       8.045       6.932       5.796       4.894       3.934       2.794       1.466      4.3469E-03
   4    9.997       8.972       7.818       6.435       4.881       4.373       3.681       2.677       1.420      4.2112E-03
   5    9.997       8.924       7.656       5.872       2.755       3.784       3.501       2.615       1.399      4.1498E-03
   6    9.997       8.978       7.830       6.451       4.900       4.391       3.696       2.688       1.425      4.2276E-03
   7    9.998       9.072       8.073       6.971       5.839       4.935       3.969       2.818       1.478      4.3848E-03
   8    9.998       9.159       8.270       7.312       6.305       5.294       4.193       2.942       1.533      4.5468E-03
   9    9.998       9.219       8.397       7.510       6.547       5.503       4.340       3.031       1.574      4.6687E-03
  10    9.998       9.248       8.458       7.599       6.652       5.598       4.412       3.076       1.596      4.7323E-03
1
              HEAD IN LAYER   4 AT END OF TIME STEP  47 IN STRESS PERIOD    4
  ---------------------------------------------------------------------------

            1           2           3           4           5           6           7           8           9          10
 ........................................................................................................................
   1    9.998       9.169       8.301       7.377       6.397       5.360       4.223       2.950       1.532      4.5789E-03
   2    9.998       9.129       8.214       7.235       6.218       5.210       4.123       2.892       1.507      4.5029E-03
   3    9.998       9.056       8.042       6.928       5.791       4.888       3.929       2.789       1.463      4.3717E-03
   4    9.997       8.970       7.815       6.430       4.881       4.368       3.676       2.673       1.417      4.2351E-03
   5    9.997       8.922       7.652       5.871       2.929       3.785       3.497       2.611       1.396      4.1734E-03
   6    9.997       8.976       7.827       6.446       4.900       4.386       3.691       2.683       1.422      4.2517E-03
   7    9.998       9.071       8.070       6.966       5.834       4.930       3.964       2.814       1.475      4.4100E-03
   8    9.998       9.157       8.267       7.308       6.300       5.289       4.189       2.938       1.530      4.5731E-03
   9    9.998       9.217       8.394       7.506       6.542       5.498       4.336       3.027       1.571      4.6959E-03
  10    9.998       9.247       8.455       7.596       6.648       5.593       4.407       3.072       1.593      4.7600E-03

 HEAD WILL BE SAVED ON UNIT   51 AT END OF TIME STEP   47, STRESS PERIOD    4

 DRAWDOWN WILL BE SAVED ON UNIT   52 AT END OF TIME STEP   47, STRESS PERIOD    4
1
  VOLUMETRIC BUDGET FOR ENTIRE MODEL AT END OF TIME STEP   47, STRESS PERIOD   4
  ------------------------------------------------------------------------------

     CUMULATIVE VOLUMES      L**3       RATES FOR THIS TIME STEP      L**3/T
     ------------------                 ------------------------

           IN:                                      IN:
           ---                                      ---
             STORAGE =      489658.4062               STORAGE =         718.7268
       CONSTANT HEAD =           0.0000         CONSTANT HEAD =           0.0000
               WELLS =           0.0000                 WELLS =           0.0000
     HEAD DEP BOUNDS =       50079.7969       HEAD DEP BOUNDS =         536.9626

            TOTAL IN =      539738.1875              TOTAL IN =        1255.6895

          OUT:                                     OUT:
          ----                                     ----
             STORAGE =           0.0000               STORAGE =           0.0000
       CONSTANT HEAD =           0.0000         CONSTANT HEAD =           0.0000
               WELLS =       73500.0000                 WELLS =         500.0000
     HEAD DEP BOUNDS =      466240.1875       HEAD DEP BOUNDS =         755.6908

           TOTAL OUT =      539740.1875             TOTAL OUT =        1255.6908

            IN - OUT =          -2.0000              IN - OUT =      -1.3428E-03

 PERCENT DISCREPANCY =          -0.00     PERCENT DISCREPANCY =          -0.00






         TIME SUMMARY AT END OF TIME STEP   47 IN STRESS PERIOD    4
                    SECONDS     MINUTES      HOURS       DAYS        YEARS
                    -----------------------------------------------------------
   TIME STEP LENGTH  86400.      1440.0      24.000      1.0000     2.73785E-03
 STRESS PERIOD TIME 4.06080E+06  67680.      1128.0      47.000     0.12868    
         TOTAL TIME 2.14272E+07 3.57120E+05  5952.0      248.00     0.67899    
1
 
 SOLVING FOR HEAD 

 OUTPUT CONTROL FOR STRESS PERIOD    4   TIME STEP   48
    SAVE HEAD FOR ALL LAYERS
    SAVE DRAWDOWN FOR ALL LAYERS
    SAVE BUDGET
    PRINT HEAD FOR ALL LAYERS
    PRINT BUDGET
 UBDSV1 SAVING "         STORAGE" ON UNIT  53 AT TIME STEP 48, STRESS PERIOD   4
 UBDSV2 SAVING "   CONSTANT HEAD" ON UNIT  53 AT TIME STEP 48, STRESS PERIOD   4
 UBDSV1 SAVING "FLOW RIGHT FACE " ON UNIT  53 AT TIME STEP 48, STRESS PERIOD   4
 UBDSV1 SAVING "FLOW FRONT FACE " ON UNIT  53 AT TIME STEP 48, STRESS PERIOD   4
 UBDSV1 SAVING "FLOW LOWER FACE " ON UNIT  53 AT TIME STEP 48, STRESS PERIOD   4
1
              HEAD IN LAYER   1 AT END OF TIME STEP  48 IN STRESS PERIOD    4
  ---------------------------------------------------------------------------

            1           2           3           4           5           6           7           8           9          10
 ........................................................................................................................
   1    9.998       9.175       8.312       7.392       6.413       5.377       4.240       2.964       1.543      2.1611E-03
   2    9.998       9.136       8.225       7.250       6.235       5.228       4.140       2.907       1.517      2.1228E-03
   3    9.998       9.063       8.053       6.944       5.808       4.906       3.946       2.804       1.473      2.0567E-03
   4    9.998       8.977       7.828       6.447       4.885       4.384       3.692       2.687       1.427      1.9882E-03
   5    9.997       8.930       7.666       5.880       1.949       3.781       3.511       2.625       1.406      1.9573E-03
   6    9.998       8.983       7.840       6.464       4.903       4.402       3.706       2.697       1.432      1.9965E-03
   7    9.998       9.077       8.081       6.982       5.851       4.947       3.980       2.828       1.486      2.0758E-03
   8    9.998       9.163       8.278       7.322       6.316       5.306       4.205       2.952       1.541      2.1579E-03
   9    9.998       9.223       8.404       7.519       6.558       5.514       4.352       3.041       1.582      2.2197E-03
  10    9.998       9.252       8.465       7.608       6.663       5.609       4.423       3.086       1.603      2.2520E-03
1
              HEAD IN LAYER   2 AT END OF TIME STEP  48 IN STRESS PERIOD    4
  ---------------------------------------------------------------------------

            1           2           3           4           5           6           7           8           9          10
 ........................................................................................................................
   1    9.998       9.170       8.303       7.380       6.400       5.364       4.228       2.954       1.536      4.2253E-03
   2    9.998       9.131       8.216       7.238       6.222       5.214       4.128       2.897       1.511      4.1547E-03
   3    9.998       9.057       8.044       6.931       5.794       4.892       3.933       2.794       1.467      4.0329E-03
   4    9.997       8.972       7.818       6.434       4.872       4.371       3.680       2.677       1.421      3.9061E-03
   5    9.997       8.924       7.656       5.866       2.378       3.772       3.500       2.615       1.400      3.8488E-03
   6    9.997       8.978       7.830       6.450       4.891       4.389       3.695       2.688       1.426      3.9214E-03
   7    9.998       9.072       8.072       6.970       5.838       4.934       3.968       2.818       1.480      4.0683E-03
   8    9.998       9.158       8.269       7.311       6.304       5.293       4.193       2.943       1.534      4.2198E-03
   9    9.998       9.218       8.396       7.508       6.545       5.502       4.340       3.031       1.576      4.3338E-03
  10    9.998       9.248       8.457       7.598       6.651       5.597       4.411       3.076       1.597      4.3932E-03
1
              HEAD IN LAYER   3 AT END OF TIME STEP  48 IN STRESS PERIOD    4
  ---------------------------------------------------------------------------

            1           2           3           4           5           6           7           8           9          10
 ........................................................................................................................
   1    9.998       9.167       8.297       7.372       6.390       5.353       4.218       2.946       1.530      4.5392E-03
   2    9.998       9.127       8.210       7.229       6.212       5.204       4.118       2.888       1.505      4.4636E-03
   3    9.998       9.054       8.038       6.922       5.784       4.881       3.923       2.785       1.461      4.3331E-03
   4    9.997       8.968       7.811       6.424       4.869       4.360       3.670       2.668       1.415      4.1972E-03
   5    9.997       8.920       7.648       5.861       2.742       3.771       3.490       2.607       1.394      4.1359E-03
   6    9.997       8.974       7.823       6.441       4.888       4.378       3.685       2.679       1.421      4.2138E-03
   7    9.998       9.069       8.066       6.961       5.827       4.923       3.958       2.810       1.474      4.3714E-03
   8    9.998       9.155       8.263       7.302       6.294       5.283       4.183       2.934       1.529      4.5338E-03
   9    9.998       9.215       8.391       7.500       6.536       5.492       4.331       3.023       1.570      4.6561E-03
  10    9.998       9.245       8.451       7.590       6.642       5.587       4.402       3.068       1.591      4.7199E-03
1
              HEAD IN LAYER   4 AT END OF TIME STEP  48 IN STRESS PERIOD    4
  ---------------------------------------------------------------------------

            1           2           3           4           5           6           7           8           9          10
 ........................................................................................................................
   1    9.998       9.165       8.294       7.367       6.385       5.348       4.213       2.941       1.528      4.5652E-03
   2    9.998       9.125       8.207       7.225       6.206       5.198       4.113       2.884       1.502      4.4892E-03
   3    9.998       9.052       8.034       6.918       5.779       4.876       3.918       2.781       1.458      4.3578E-03
   4    9.997       8.966       7.807       6.419       4.869       4.355       3.664       2.664       1.412      4.2210E-03
   5    9.997       8.918       7.644       5.861       2.916       3.773       3.485       2.603       1.392      4.1594E-03
   6    9.997       8.972       7.819       6.436       4.888       4.373       3.680       2.675       1.418      4.2379E-03
   7    9.998       9.067       8.063       6.956       5.822       4.918       3.953       2.806       1.471      4.3965E-03
   8    9.998       9.154       8.260       7.298       6.289       5.277       4.178       2.930       1.526      4.5601E-03
   9    9.998       9.214       8.388       7.497       6.532       5.487       4.326       3.019       1.567      4.6833E-03
  10    9.998       9.243       8.449       7.587       6.637       5.582       4.397       3.064       1.589      4.7475E-03

 HEAD WILL BE SAVED ON UNIT   51 AT END OF TIME STEP   48, STRESS PERIOD    4

 DRAWDOWN WILL BE SAVED ON UNIT   52 AT END OF TIME STEP   48, STRESS PERIOD    4
1
  VOLUMETRIC BUDGET FOR ENTIRE MODEL AT END OF TIME STEP   48, STRESS PERIOD   4
  ------------------------------------------------------------------------------

     CUMULATIVE VOLUMES      L**3       RATES FOR THIS TIME STEP      L**3/T
     ------------------                 ------------------------

           IN:                                      IN:
           ---                                      ---
             STORAGE =      490372.6250               STORAGE =         714.2099
       CONSTANT HEAD =           0.0000         CONSTANT HEAD =           0.0000
               WELLS =           0.0000                 WELLS =           0.0000
     HEAD DEP BOUNDS =       50618.9414       HEAD DEP BOUNDS =         539.1462

            TOTAL IN =      540991.5625              TOTAL IN =        1253.3562

          OUT:                                     OUT:
          ----                                     ----
             STORAGE =           0.0000               STORAGE =           0.0000
       CONSTANT HEAD =           0.0000         CONSTANT HEAD =           0.0000
               WELLS =       74000.0000                 WELLS =         500.0000
     HEAD DEP BOUNDS =      466993.5625       HEAD DEP BOUNDS =         753.3703

           TOTAL OUT =      540993.5625             TOTAL OUT =        1253.3704

            IN - OUT =          -2.0000              IN - OUT =      -1.4160E-02

 PERCENT DISCREPANCY =          -0.00     PERCENT DISCREPANCY =          -0.00






         TIME SUMMARY AT END OF TIME STEP   48 IN STRESS PERIOD    4
                    SECONDS     MINUTES      HOURS       DAYS        YEARS
                    -----------------------------------------------------------
   TIME STEP LENGTH  86400.      1440.0      24.000      1.0000     2.73785E-03
 STRESS PERIOD TIME 4.14720E+06  69120.      1152.0      48.000     0.13142    
         TOTAL TIME 2.15136E+07 3.58560E+05  5976.0      249.00     0.68172    
1
 
 SOLVING FOR HEAD 

 OUTPUT CONTROL FOR STRESS PERIOD    4   TIME STEP   49
    SAVE HEAD FOR ALL LAYERS
    SAVE DRAWDOWN FOR ALL LAYERS
    SAVE BUDGET
    PRINT HEAD FOR ALL LAYERS
    PRINT BUDGET
 UBDSV1 SAVING "         STORAGE" ON UNIT  53 AT TIME STEP 49, STRESS PERIOD   4
 UBDSV2 SAVING "   CONSTANT HEAD" ON UNIT  53 AT TIME STEP 49, STRESS PERIOD   4
 UBDSV1 SAVING "FLOW RIGHT FACE " ON UNIT  53 AT TIME STEP 49, STRESS PERIOD   4
 UBDSV1 SAVING "FLOW FRONT FACE " ON UNIT  53 AT TIME STEP 49, STRESS PERIOD   4
 UBDSV1 SAVING "FLOW LOWER FACE " ON UNIT  53 AT TIME STEP 49, STRESS PERIOD   4
1
              HEAD IN LAYER   1 AT END OF TIME STEP  49 IN STRESS PERIOD    4
  ---------------------------------------------------------------------------

            1           2           3           4           5           6           7           8           9          10
 ........................................................................................................................
   1    9.998       9.172       8.305       7.382       6.402       5.365       4.229       2.956       1.538      2.1542E-03
   2    9.998       9.132       8.218       7.240       6.224       5.216       4.129       2.899       1.513      2.1159E-03
   3    9.998       9.059       8.046       6.934       5.796       4.894       3.934       2.795       1.468      2.0497E-03
   4    9.998       8.973       7.820       6.437       4.872       4.371       3.680       2.678       1.422      1.9812E-03
   5    9.997       8.926       7.659       5.869       1.935       3.769       3.500       2.616       1.401      1.9502E-03
   6    9.998       8.980       7.832       6.453       4.891       4.389       3.695       2.689       1.428      1.9894E-03
   7    9.998       9.073       8.074       6.972       5.840       4.935       3.969       2.820       1.481      2.0690E-03
   8    9.998       9.160       8.271       7.312       6.305       5.294       4.194       2.944       1.536      2.1513E-03
   9    9.998       9.219       8.398       7.510       6.547       5.503       4.342       3.033       1.578      2.2133E-03
  10    9.998       9.249       8.458       7.599       6.653       5.599       4.413       3.078       1.599      2.2458E-03
1
              HEAD IN LAYER   2 AT END OF TIME STEP  49 IN STRESS PERIOD    4
  ---------------------------------------------------------------------------

            1           2           3           4           5           6           7           8           9          10
 ........................................................................................................................
   1    9.998       9.167       8.296       7.370       6.389       5.352       4.217       2.946       1.532      4.2126E-03
   2    9.998       9.127       8.209       7.228       6.210       5.202       4.117       2.889       1.506      4.1420E-03
   3    9.998       9.053       8.037       6.921       5.783       4.880       3.922       2.785       1.462      4.0200E-03
   4    9.997       8.968       7.810       6.424       4.860       4.358       3.668       2.668       1.416      3.8930E-03
   5    9.997       8.920       7.648       5.855       2.365       3.760       3.489       2.606       1.395      3.8357E-03
   6    9.997       8.974       7.823       6.440       4.879       4.376       3.684       2.679       1.422      3.9086E-03
   7    9.998       9.068       8.065       6.960       5.826       4.922       3.957       2.810       1.475      4.0558E-03
   8    9.998       9.155       8.262       7.301       6.292       5.281       4.183       2.935       1.530      4.2077E-03
   9    9.998       9.215       8.390       7.499       6.535       5.491       4.330       3.024       1.571      4.3220E-03
  10    9.998       9.244       8.450       7.589       6.641       5.586       4.401       3.069       1.593      4.3817E-03
1
              HEAD IN LAYER   3 AT END OF TIME STEP  49 IN STRESS PERIOD    4
  ---------------------------------------------------------------------------

            1           2           3           4           5           6           7           8           9          10
 ........................................................................................................................
   1    9.998       9.163       8.290       7.362       6.379       5.341       4.207       2.937       1.526      4.5257E-03
   2    9.998       9.123       8.202       7.219       6.200       5.192       4.107       2.880       1.500      4.4500E-03
   3    9.998       9.050       8.030       6.912       5.772       4.869       3.912       2.777       1.456      4.3193E-03
   4    9.997       8.964       7.803       6.414       4.857       4.348       3.658       2.660       1.410      4.1833E-03
   5    9.997       8.916       7.641       5.851       2.729       3.759       3.479       2.598       1.390      4.1220E-03
   6    9.997       8.970       7.816       6.431       4.876       4.366       3.674       2.671       1.416      4.2001E-03
   7    9.998       9.065       8.059       6.951       5.816       4.911       3.947       2.802       1.469      4.3580E-03
   8    9.998       9.152       8.256       7.293       6.283       5.271       4.173       2.926       1.524      4.5209E-03
   9    9.998       9.212       8.384       7.491       6.526       5.481       4.321       3.015       1.566      4.6436E-03
  10    9.998       9.241       8.445       7.581       6.631       5.577       4.392       3.061       1.587      4.7076E-03
1
              HEAD IN LAYER   4 AT END OF TIME STEP  49 IN STRESS PERIOD    4
  ---------------------------------------------------------------------------

            1           2           3           4           5           6           7           8           9          10
 ........................................................................................................................
   1    9.998       9.162       8.287       7.358       6.374       5.336       4.202       2.933       1.523      4.5517E-03
   2    9.998       9.122       8.199       7.215       6.195       5.186       4.102       2.876       1.497      4.4755E-03
   3    9.998       9.048       8.027       6.908       5.767       4.864       3.907       2.772       1.453      4.3439E-03
   4    9.997       8.962       7.800       6.409       4.857       4.343       3.653       2.656       1.408      4.2071E-03
   5    9.997       8.914       7.637       5.851       2.903       3.760       3.474       2.594       1.387      4.1454E-03
   6    9.997       8.968       7.812       6.426       4.876       4.361       3.669       2.667       1.413      4.2241E-03
   7    9.998       9.063       8.056       6.947       5.811       4.906       3.943       2.798       1.467      4.3831E-03
   8    9.998       9.150       8.253       7.289       6.278       5.266       4.168       2.922       1.521      4.5471E-03
   9    9.998       9.210       8.381       7.487       6.521       5.476       4.316       3.011       1.563      4.6707E-03
  10    9.998       9.240       8.442       7.578       6.627       5.572       4.387       3.057       1.584      4.7352E-03

 HEAD WILL BE SAVED ON UNIT   51 AT END OF TIME STEP   49, STRESS PERIOD    4

 DRAWDOWN WILL BE SAVED ON UNIT   52 AT END OF TIME STEP   49, STRESS PERIOD    4
1
  VOLUMETRIC BUDGET FOR ENTIRE MODEL AT END OF TIME STEP   49, STRESS PERIOD   4
  ------------------------------------------------------------------------------

     CUMULATIVE VOLUMES      L**3       RATES FOR THIS TIME STEP      L**3/T
     ------------------                 ------------------------

           IN:                                      IN:
           ---                                      ---
             STORAGE =      491082.3438               STORAGE =         709.7296
       CONSTANT HEAD =           0.0000         CONSTANT HEAD =           0.0000
               WELLS =           0.0000                 WELLS =           0.0000
     HEAD DEP BOUNDS =       51160.2578       HEAD DEP BOUNDS =         541.3165

            TOTAL IN =      542242.6250              TOTAL IN =        1251.0461

          OUT:                                     OUT:
          ----                                     ----
             STORAGE =           0.0000               STORAGE =           0.0000
       CONSTANT HEAD =           0.0000         CONSTANT HEAD =           0.0000
               WELLS =       74500.0000                 WELLS =         500.0000
     HEAD DEP BOUNDS =      467744.6250       HEAD DEP BOUNDS =         751.0671

           TOTAL OUT =      542244.6250             TOTAL OUT =        1251.0671

            IN - OUT =          -2.0000              IN - OUT =      -2.0996E-02

 PERCENT DISCREPANCY =          -0.00     PERCENT DISCREPANCY =          -0.00






         TIME SUMMARY AT END OF TIME STEP   49 IN STRESS PERIOD    4
                    SECONDS     MINUTES      HOURS       DAYS        YEARS
                    -----------------------------------------------------------
   TIME STEP LENGTH  86400.      1440.0      24.000      1.0000     2.73785E-03
 STRESS PERIOD TIME 4.23360E+06  70560.      1176.0      49.000     0.13415    
         TOTAL TIME 2.16000E+07 3.60000E+05  6000.0      250.00     0.68446    
1
 
 SOLVING FOR HEAD 

 OUTPUT CONTROL FOR STRESS PERIOD    4   TIME STEP   50
    SAVE HEAD FOR ALL LAYERS
    SAVE DRAWDOWN FOR ALL LAYERS
    SAVE BUDGET
    PRINT HEAD FOR ALL LAYERS
    PRINT BUDGET
 UBDSV1 SAVING "         STORAGE" ON UNIT  53 AT TIME STEP 50, STRESS PERIOD   4
 UBDSV2 SAVING "   CONSTANT HEAD" ON UNIT  53 AT TIME STEP 50, STRESS PERIOD   4
 UBDSV1 SAVING "FLOW RIGHT FACE " ON UNIT  53 AT TIME STEP 50, STRESS PERIOD   4
 UBDSV1 SAVING "FLOW FRONT FACE " ON UNIT  53 AT TIME STEP 50, STRESS PERIOD   4
 UBDSV1 SAVING "FLOW LOWER FACE " ON UNIT  53 AT TIME STEP 50, STRESS PERIOD   4
1
              HEAD IN LAYER   1 AT END OF TIME STEP  50 IN STRESS PERIOD    4
  ---------------------------------------------------------------------------

            1           2           3           4           5           6           7           8           9          10
 ........................................................................................................................
   1    9.998       9.168       8.298       7.372       6.390       5.353       4.219       2.948       1.534      2.1473E-03
   2    9.998       9.128       8.210       7.230       6.212       5.204       4.118       2.890       1.508      2.1090E-03
   3    9.998       9.055       8.039       6.923       5.784       4.881       3.923       2.786       1.464      2.0428E-03
   4    9.998       8.969       7.813       6.427       4.860       4.359       3.669       2.669       1.417      1.9740E-03
   5    9.997       8.922       7.651       5.859       1.922       3.756       3.489       2.607       1.397      1.9432E-03
   6    9.998       8.976       7.825       6.443       4.879       4.377       3.684       2.680       1.423      1.9825E-03
   7    9.998       9.070       8.067       6.962       5.828       4.923       3.958       2.811       1.477      2.0622E-03
   8    9.998       9.156       8.264       7.303       6.294       5.283       4.184       2.936       1.532      2.1446E-03
   9    9.998       9.216       8.391       7.501       6.536       5.492       4.332       3.025       1.573      2.2070E-03
  10    9.998       9.245       8.452       7.591       6.642       5.588       4.403       3.070       1.595      2.2395E-03
1
              HEAD IN LAYER   2 AT END OF TIME STEP  50 IN STRESS PERIOD    4
  ---------------------------------------------------------------------------

            1           2           3           4           5           6           7           8           9          10
 ........................................................................................................................
   1    9.998       9.163       8.289       7.360       6.377       5.340       4.207       2.938       1.527      4.2000E-03
   2    9.998       9.123       8.201       7.218       6.199       5.190       4.106       2.880       1.502      4.1293E-03
   3    9.998       9.050       8.030       6.911       5.771       4.868       3.911       2.777       1.457      4.0071E-03
   4    9.997       8.964       7.803       6.413       4.848       4.346       3.657       2.660       1.411      3.8800E-03
   5    9.997       8.916       7.641       5.845       2.352       3.747       3.477       2.598       1.391      3.8228E-03
   6    9.997       8.970       7.815       6.430       4.867       4.364       3.673       2.671       1.417      3.8958E-03
   7    9.998       9.065       8.058       6.950       5.815       4.910       3.947       2.802       1.470      4.0434E-03
   8    9.998       9.151       8.256       7.292       6.282       5.270       4.172       2.927       1.526      4.1956E-03
   9    9.998       9.211       8.383       7.490       6.524       5.480       4.320       3.016       1.567      4.3104E-03
  10    9.998       9.241       8.444       7.580       6.630       5.576       4.392       3.061       1.589      4.3702E-03
1
              HEAD IN LAYER   3 AT END OF TIME STEP  50 IN STRESS PERIOD    4
  ---------------------------------------------------------------------------

            1           2           3           4           5           6           7           8           9          10
 ........................................................................................................................
   1    9.998       9.160       8.283       7.352       6.367       5.330       4.196       2.929       1.521      4.5123E-03
   2    9.998       9.120       8.195       7.210       6.188       5.180       4.096       2.872       1.496      4.4365E-03
   3    9.998       9.046       8.023       6.902       5.760       4.857       3.901       2.768       1.452      4.3056E-03
   4    9.997       8.960       7.796       6.404       4.845       4.336       3.647       2.651       1.406      4.1694E-03
   5    9.997       8.912       7.633       5.841       2.716       3.746       3.468       2.590       1.385      4.1082E-03
   6    9.997       8.967       7.808       6.421       4.864       4.354       3.663       2.663       1.411      4.1865E-03
   7    9.998       9.061       8.052       6.941       5.804       4.900       3.937       2.794       1.465      4.3448E-03
   8    9.998       9.148       8.250       7.284       6.272       5.260       4.163       2.919       1.520      4.5081E-03
   9    9.998       9.208       8.377       7.482       6.515       5.470       4.311       3.008       1.561      4.6312E-03
  10    9.998       9.238       8.439       7.573       6.621       5.566       4.382       3.053       1.583      4.6954E-03
1
              HEAD IN LAYER   4 AT END OF TIME STEP  50 IN STRESS PERIOD    4
  ---------------------------------------------------------------------------

            1           2           3           4           5           6           7           8           9          10
 ........................................................................................................................
   1    9.998       9.158       8.280       7.348       6.362       5.324       4.191       2.925       1.519      4.5383E-03
   2    9.998       9.118       8.192       7.205       6.183       5.175       4.091       2.868       1.493      4.4619E-03
   3    9.998       9.044       8.020       6.898       5.755       4.852       3.896       2.764       1.449      4.3302E-03
   4    9.997       8.958       7.792       6.399       4.845       4.331       3.642       2.647       1.403      4.1932E-03
   5    9.997       8.910       7.630       5.840       2.890       3.748       3.463       2.586       1.382      4.1316E-03
   6    9.997       8.965       7.805       6.416       4.864       4.349       3.658       2.658       1.409      4.2105E-03
   7    9.998       9.060       8.049       6.937       5.799       4.895       3.932       2.790       1.462      4.3699E-03
   8    9.998       9.146       8.247       7.280       6.267       5.255       4.158       2.915       1.517      4.5343E-03
   9    9.998       9.207       8.375       7.478       6.510       5.465       4.306       3.004       1.559      4.6582E-03
  10    9.998       9.237       8.436       7.569       6.617       5.561       4.378       3.049       1.580      4.7229E-03

 HEAD WILL BE SAVED ON UNIT   51 AT END OF TIME STEP   50, STRESS PERIOD    4

 DRAWDOWN WILL BE SAVED ON UNIT   52 AT END OF TIME STEP   50, STRESS PERIOD    4
1
  VOLUMETRIC BUDGET FOR ENTIRE MODEL AT END OF TIME STEP   50, STRESS PERIOD   4
  ------------------------------------------------------------------------------

     CUMULATIVE VOLUMES      L**3       RATES FOR THIS TIME STEP      L**3/T
     ------------------                 ------------------------

           IN:                                      IN:
           ---                                      ---
             STORAGE =      491787.6250               STORAGE =         705.2766
       CONSTANT HEAD =           0.0000         CONSTANT HEAD =           0.0000
               WELLS =           0.0000                 WELLS =           0.0000
     HEAD DEP BOUNDS =       51703.7500       HEAD DEP BOUNDS =         543.4938

            TOTAL IN =      543491.3750              TOTAL IN =        1248.7705

          OUT:                                     OUT:
          ----                                     ----
             STORAGE =           0.0000               STORAGE =           0.0000
       CONSTANT HEAD =           0.0000         CONSTANT HEAD =           0.0000
               WELLS =       75000.0000                 WELLS =         500.0000
     HEAD DEP BOUNDS =      468493.4062       HEAD DEP BOUNDS =         748.7792

           TOTAL OUT =      543493.3750             TOTAL OUT =        1248.7793

            IN - OUT =          -2.0000              IN - OUT =      -8.7891E-03

 PERCENT DISCREPANCY =          -0.00     PERCENT DISCREPANCY =          -0.00






         TIME SUMMARY AT END OF TIME STEP   50 IN STRESS PERIOD    4
                    SECONDS     MINUTES      HOURS       DAYS        YEARS
                    -----------------------------------------------------------
   TIME STEP LENGTH  86400.      1440.0      24.000      1.0000     2.73785E-03
 STRESS PERIOD TIME 4.32000E+06  72000.      1200.0      50.000     0.13689    
         TOTAL TIME 2.16864E+07 3.61440E+05  6024.0      251.00     0.68720    
1
 
 SOLVING FOR HEAD 

 OUTPUT CONTROL FOR STRESS PERIOD    4   TIME STEP   51
    SAVE HEAD FOR ALL LAYERS
    SAVE DRAWDOWN FOR ALL LAYERS
    SAVE BUDGET
    PRINT HEAD FOR ALL LAYERS
    PRINT BUDGET
 UBDSV1 SAVING "         STORAGE" ON UNIT  53 AT TIME STEP 51, STRESS PERIOD   4
 UBDSV2 SAVING "   CONSTANT HEAD" ON UNIT  53 AT TIME STEP 51, STRESS PERIOD   4
 UBDSV1 SAVING "FLOW RIGHT FACE " ON UNIT  53 AT TIME STEP 51, STRESS PERIOD   4
 UBDSV1 SAVING "FLOW FRONT FACE " ON UNIT  53 AT TIME STEP 51, STRESS PERIOD   4
 UBDSV1 SAVING "FLOW LOWER FACE " ON UNIT  53 AT TIME STEP 51, STRESS PERIOD   4
1
              HEAD IN LAYER   1 AT END OF TIME STEP  51 IN STRESS PERIOD    4
  ---------------------------------------------------------------------------

            1           2           3           4           5           6           7           8           9          10
 ........................................................................................................................
   1    9.998       9.164       8.291       7.362       6.379       5.342       4.208       2.939       1.529      2.1405E-03
   2    9.998       9.124       8.203       7.220       6.200       5.192       4.108       2.882       1.503      2.1020E-03
   3    9.998       9.051       8.031       6.913       5.773       4.869       3.912       2.778       1.459      2.0358E-03
   4    9.998       8.966       7.805       6.416       4.848       4.347       3.658       2.661       1.413      1.9671E-03
   5    9.997       8.918       7.644       5.849       1.910       3.743       3.478       2.599       1.392      1.9363E-03
   6    9.998       8.972       7.818       6.433       4.867       4.365       3.673       2.672       1.418      1.9756E-03
   7    9.998       9.066       8.060       6.952       5.817       4.912       3.948       2.803       1.472      2.0554E-03
   8    9.998       9.153       8.257       7.294       6.283       5.272       4.174       2.928       1.527      2.1381E-03
   9    9.998       9.212       8.384       7.492       6.526       5.481       4.322       3.018       1.569      2.2006E-03
  10    9.998       9.242       8.445       7.582       6.632       5.577       4.393       3.063       1.591      2.2332E-03
1
              HEAD IN LAYER   2 AT END OF TIME STEP  51 IN STRESS PERIOD    4
  ---------------------------------------------------------------------------

            1           2           3           4           5           6           7           8           9          10
 ........................................................................................................................
   1    9.998       9.159       8.282       7.350       6.366       5.328       4.196       2.930       1.523      4.1875E-03
   2    9.998       9.119       8.194       7.208       6.187       5.179       4.095       2.872       1.497      4.1167E-03
   3    9.998       9.046       8.022       6.901       5.759       4.856       3.900       2.768       1.453      3.9944E-03
   4    9.997       8.960       7.796       6.403       4.836       4.334       3.646       2.651       1.407      3.8672E-03
   5    9.997       8.912       7.633       5.835       2.339       3.735       3.466       2.590       1.386      3.8099E-03
   6    9.997       8.967       7.808       6.420       4.855       4.352       3.662       2.662       1.412      3.8831E-03
   7    9.998       9.061       8.051       6.941       5.803       4.899       3.936       2.794       1.466      4.0310E-03
   8    9.998       9.148       8.249       7.283       6.271       5.259       4.162       2.919       1.521      4.1837E-03
   9    9.998       9.208       8.376       7.481       6.514       5.469       4.310       3.008       1.563      4.2987E-03
  10    9.998       9.238       8.438       7.571       6.620       5.565       4.382       3.054       1.585      4.3588E-03
1
              HEAD IN LAYER   3 AT END OF TIME STEP  51 IN STRESS PERIOD    4
  ---------------------------------------------------------------------------

            1           2           3           4           5           6           7           8           9          10
 ........................................................................................................................
   1    9.998       9.156       8.276       7.342       6.356       5.318       4.186       2.921       1.517      4.4990E-03
   2    9.998       9.116       8.188       7.200       6.177       5.168       4.085       2.864       1.491      4.4230E-03
   3    9.998       9.042       8.016       6.892       5.748       4.845       3.890       2.760       1.447      4.2920E-03
   4    9.997       8.956       7.789       6.393       4.833       4.323       3.636       2.643       1.401      4.1557E-03
   5    9.997       8.908       7.626       5.830       2.703       3.734       3.457       2.581       1.380      4.0945E-03
   6    9.997       8.963       7.801       6.411       4.852       4.342       3.652       2.654       1.407      4.1730E-03
   7    9.998       9.058       8.045       6.932       5.793       4.888       3.926       2.786       1.460      4.3317E-03
   8    9.998       9.145       8.243       7.275       6.261       5.249       4.153       2.911       1.516      4.4954E-03
   9    9.998       9.205       8.371       7.473       6.505       5.459       4.301       3.000       1.557      4.6188E-03
  10    9.998       9.235       8.432       7.564       6.611       5.555       4.373       3.046       1.579      4.6832E-03
1
              HEAD IN LAYER   4 AT END OF TIME STEP  51 IN STRESS PERIOD    4
  ---------------------------------------------------------------------------

            1           2           3           4           5           6           7           8           9          10
 ........................................................................................................................
   1    9.998       9.154       8.273       7.338       6.351       5.313       4.181       2.917       1.514      4.5249E-03
   2    9.998       9.114       8.185       7.195       6.172       5.163       4.080       2.859       1.488      4.4485E-03
   3    9.998       9.040       8.012       6.888       5.743       4.840       3.885       2.756       1.444      4.3166E-03
   4    9.997       8.954       7.785       6.389       4.833       4.318       3.631       2.639       1.398      4.1795E-03
   5    9.997       8.906       7.622       5.830       2.878       3.735       3.452       2.577       1.378      4.1179E-03
   6    9.997       8.961       7.798       6.406       4.852       4.337       3.647       2.650       1.404      4.1970E-03
   7    9.998       9.056       8.042       6.927       5.788       4.883       3.922       2.782       1.458      4.3567E-03
   8    9.998       9.143       8.240       7.270       6.256       5.244       4.148       2.907       1.513      4.5215E-03
   9    9.998       9.203       8.368       7.470       6.500       5.454       4.296       2.996       1.555      4.6458E-03
  10    9.998       9.233       8.429       7.560       6.606       5.551       4.368       3.042       1.576      4.7107E-03

 HEAD WILL BE SAVED ON UNIT   51 AT END OF TIME STEP   51, STRESS PERIOD    4

 DRAWDOWN WILL BE SAVED ON UNIT   52 AT END OF TIME STEP   51, STRESS PERIOD    4
1
  VOLUMETRIC BUDGET FOR ENTIRE MODEL AT END OF TIME STEP   51, STRESS PERIOD   4
  ------------------------------------------------------------------------------

     CUMULATIVE VOLUMES      L**3       RATES FOR THIS TIME STEP      L**3/T
     ------------------                 ------------------------

           IN:                                      IN:
           ---                                      ---
             STORAGE =      492488.4688               STORAGE =         700.8513
       CONSTANT HEAD =           0.0000         CONSTANT HEAD =           0.0000
               WELLS =           0.0000                 WELLS =           0.0000
     HEAD DEP BOUNDS =       52249.3828       HEAD DEP BOUNDS =         545.6338

            TOTAL IN =      544737.8750              TOTAL IN =        1246.4851

          OUT:                                     OUT:
          ----                                     ----
             STORAGE =           0.0000               STORAGE =           0.0000
       CONSTANT HEAD =           0.0000         CONSTANT HEAD =           0.0000
               WELLS =       75500.0000                 WELLS =         500.0000
     HEAD DEP BOUNDS =      469239.9062       HEAD DEP BOUNDS =         746.5035

           TOTAL OUT =      544739.8750             TOTAL OUT =        1246.5034

            IN - OUT =          -2.0000              IN - OUT =      -1.8311E-02

 PERCENT DISCREPANCY =          -0.00     PERCENT DISCREPANCY =          -0.00






         TIME SUMMARY AT END OF TIME STEP   51 IN STRESS PERIOD    4
                    SECONDS     MINUTES      HOURS       DAYS        YEARS
                    -----------------------------------------------------------
   TIME STEP LENGTH  86400.      1440.0      24.000      1.0000     2.73785E-03
 STRESS PERIOD TIME 4.40640E+06  73440.      1224.0      51.000     0.13963    
         TOTAL TIME 2.17728E+07 3.62880E+05  6048.0      252.00     0.68994    
1
 
 SOLVING FOR HEAD 

 OUTPUT CONTROL FOR STRESS PERIOD    4   TIME STEP   52
    SAVE HEAD FOR ALL LAYERS
    SAVE DRAWDOWN FOR ALL LAYERS
    SAVE BUDGET
    PRINT HEAD FOR ALL LAYERS
    PRINT BUDGET
 UBDSV1 SAVING "         STORAGE" ON UNIT  53 AT TIME STEP 52, STRESS PERIOD   4
 UBDSV2 SAVING "   CONSTANT HEAD" ON UNIT  53 AT TIME STEP 52, STRESS PERIOD   4
 UBDSV1 SAVING "FLOW RIGHT FACE " ON UNIT  53 AT TIME STEP 52, STRESS PERIOD   4
 UBDSV1 SAVING "FLOW FRONT FACE " ON UNIT  53 AT TIME STEP 52, STRESS PERIOD   4
 UBDSV1 SAVING "FLOW LOWER FACE " ON UNIT  53 AT TIME STEP 52, STRESS PERIOD   4
1
              HEAD IN LAYER   1 AT END OF TIME STEP  52 IN STRESS PERIOD    4
  ---------------------------------------------------------------------------

            1           2           3           4           5           6           7           8           9          10
 ........................................................................................................................
   1    9.998       9.160       8.283       7.352       6.367       5.330       4.197       2.931       1.524      2.1336E-03
   2    9.998       9.121       8.196       7.210       6.189       5.180       4.097       2.874       1.499      2.0951E-03
   3    9.998       9.047       8.024       6.903       5.761       4.857       3.901       2.770       1.454      2.0290E-03
   4    9.997       8.962       7.798       6.406       4.836       4.334       3.647       2.652       1.408      1.9603E-03
   5    9.997       8.914       7.636       5.838       1.897       3.731       3.467       2.590       1.387      1.9292E-03
   6    9.998       8.968       7.810       6.423       4.855       4.353       3.662       2.663       1.414      1.9688E-03
   7    9.998       9.062       8.053       6.943       5.805       4.900       3.937       2.795       1.468      2.0487E-03
   8    9.998       9.149       8.250       7.284       6.272       5.260       4.164       2.921       1.523      2.1316E-03
   9    9.998       9.209       8.378       7.483       6.515       5.471       4.312       3.010       1.565      2.1942E-03
  10    9.998       9.239       8.439       7.573       6.621       5.567       4.384       3.055       1.587      2.2270E-03
1
              HEAD IN LAYER   2 AT END OF TIME STEP  52 IN STRESS PERIOD    4
  ---------------------------------------------------------------------------

            1           2           3           4           5           6           7           8           9          10
 ........................................................................................................................
   1    9.998       9.155       8.275       7.341       6.354       5.317       4.185       2.921       1.518      4.1751E-03
   2    9.998       9.116       8.187       7.198       6.176       5.167       4.085       2.864       1.493      4.1041E-03
   3    9.998       9.042       8.015       6.891       5.747       4.844       3.889       2.760       1.448      3.9817E-03
   4    9.997       8.956       7.788       6.393       4.824       4.321       3.635       2.643       1.402      3.8544E-03
   5    9.997       8.909       7.626       5.824       2.326       3.723       3.455       2.581       1.381      3.7971E-03
   6    9.997       8.963       7.801       6.410       4.843       4.340       3.651       2.654       1.408      3.8706E-03
   7    9.998       9.057       8.044       6.931       5.792       4.887       3.926       2.786       1.462      4.0188E-03
   8    9.998       9.144       8.242       7.273       6.260       5.248       4.152       2.911       1.517      4.1718E-03
   9    9.998       9.205       8.370       7.472       6.503       5.458       4.301       3.001       1.559      4.2872E-03
  10    9.998       9.234       8.431       7.563       6.610       5.554       4.372       3.046       1.580      4.3474E-03
1
              HEAD IN LAYER   3 AT END OF TIME STEP  52 IN STRESS PERIOD    4
  ---------------------------------------------------------------------------

            1           2           3           4           5           6           7           8           9          10
 ........................................................................................................................
   1    9.998       9.152       8.269       7.332       6.345       5.306       4.175       2.913       1.512      4.4857E-03
   2    9.998       9.112       8.181       7.190       6.166       5.156       4.075       2.855       1.487      4.4097E-03
   3    9.998       9.038       8.009       6.882       5.737       4.833       3.879       2.752       1.443      4.2785E-03
   4    9.997       8.952       7.781       6.383       4.821       4.311       3.625       2.635       1.396      4.1421E-03
   5    9.997       8.905       7.619       5.820       2.691       3.722       3.446       2.573       1.376      4.0809E-03
   6    9.997       8.959       7.794       6.401       4.840       4.330       3.641       2.646       1.402      4.1596E-03
   7    9.998       9.054       8.038       6.922       5.782       4.877       3.916       2.778       1.456      4.3186E-03
   8    9.998       9.141       8.236       7.265       6.250       5.238       4.143       2.903       1.511      4.4827E-03
   9    9.998       9.201       8.364       7.464       6.494       5.449       4.291       2.993       1.553      4.6065E-03
  10    9.998       9.231       8.426       7.555       6.601       5.545       4.363       3.038       1.575      4.6711E-03
1
              HEAD IN LAYER   4 AT END OF TIME STEP  52 IN STRESS PERIOD    4
  ---------------------------------------------------------------------------

            1           2           3           4           5           6           7           8           9          10
 ........................................................................................................................
   1    9.998       9.151       8.266       7.328       6.340       5.301       4.170       2.909       1.510      4.5116E-03
   2    9.998       9.111       8.178       7.186       6.161       5.151       4.070       2.851       1.484      4.4351E-03
   3    9.998       9.037       8.005       6.878       5.732       4.828       3.875       2.748       1.440      4.3030E-03
   4    9.997       8.951       7.778       6.379       4.821       4.306       3.620       2.631       1.394      4.1658E-03
   5    9.997       8.903       7.615       5.820       2.865       3.723       3.441       2.569       1.373      4.1042E-03
   6    9.997       8.957       7.791       6.396       4.841       4.325       3.636       2.642       1.400      4.1835E-03
   7    9.998       9.052       8.035       6.918       5.777       4.872       3.911       2.774       1.453      4.3436E-03
   8    9.998       9.140       8.233       7.261       6.246       5.233       4.138       2.899       1.509      4.5088E-03
   9    9.998       9.200       8.362       7.461       6.490       5.444       4.287       2.989       1.550      4.6335E-03
  10    9.998       9.230       8.423       7.551       6.596       5.540       4.359       3.034       1.572      4.6986E-03

 HEAD WILL BE SAVED ON UNIT   51 AT END OF TIME STEP   52, STRESS PERIOD    4

 DRAWDOWN WILL BE SAVED ON UNIT   52 AT END OF TIME STEP   52, STRESS PERIOD    4
1
  VOLUMETRIC BUDGET FOR ENTIRE MODEL AT END OF TIME STEP   52, STRESS PERIOD   4
  ------------------------------------------------------------------------------

     CUMULATIVE VOLUMES      L**3       RATES FOR THIS TIME STEP      L**3/T
     ------------------                 ------------------------

           IN:                                      IN:
           ---                                      ---
             STORAGE =      493184.9062               STORAGE =         696.4485
       CONSTANT HEAD =           0.0000         CONSTANT HEAD =           0.0000
               WELLS =           0.0000                 WELLS =           0.0000
     HEAD DEP BOUNDS =       52797.1641       HEAD DEP BOUNDS =         547.7810

            TOTAL IN =      545982.0625              TOTAL IN =        1244.2295

          OUT:                                     OUT:
          ----                                     ----
             STORAGE =           0.0000               STORAGE =           0.0000
       CONSTANT HEAD =           0.0000         CONSTANT HEAD =           0.0000
               WELLS =       76000.0000                 WELLS =         500.0000
     HEAD DEP BOUNDS =      469984.1562       HEAD DEP BOUNDS =         744.2438

           TOTAL OUT =      545984.1250             TOTAL OUT =        1244.2439

            IN - OUT =          -2.0625              IN - OUT =      -1.4404E-02

 PERCENT DISCREPANCY =          -0.00     PERCENT DISCREPANCY =          -0.00






         TIME SUMMARY AT END OF TIME STEP   52 IN STRESS PERIOD    4
                    SECONDS     MINUTES      HOURS       DAYS        YEARS
                    -----------------------------------------------------------
   TIME STEP LENGTH  86400.      1440.0      24.000      1.0000     2.73785E-03
 STRESS PERIOD TIME 4.49280E+06  74880.      1248.0      52.000     0.14237    
         TOTAL TIME 2.18592E+07 3.64320E+05  6072.0      253.00     0.69268    
1
 
 SOLVING FOR HEAD 

 OUTPUT CONTROL FOR STRESS PERIOD    4   TIME STEP   53
    SAVE HEAD FOR ALL LAYERS
    SAVE DRAWDOWN FOR ALL LAYERS
    SAVE BUDGET
    PRINT HEAD FOR ALL LAYERS
    PRINT BUDGET
 UBDSV1 SAVING "         STORAGE" ON UNIT  53 AT TIME STEP 53, STRESS PERIOD   4
 UBDSV2 SAVING "   CONSTANT HEAD" ON UNIT  53 AT TIME STEP 53, STRESS PERIOD   4
 UBDSV1 SAVING "FLOW RIGHT FACE " ON UNIT  53 AT TIME STEP 53, STRESS PERIOD   4
 UBDSV1 SAVING "FLOW FRONT FACE " ON UNIT  53 AT TIME STEP 53, STRESS PERIOD   4
 UBDSV1 SAVING "FLOW LOWER FACE " ON UNIT  53 AT TIME STEP 53, STRESS PERIOD   4
1
              HEAD IN LAYER   1 AT END OF TIME STEP  53 IN STRESS PERIOD    4
  ---------------------------------------------------------------------------

            1           2           3           4           5           6           7           8           9          10
 ........................................................................................................................
   1    9.998       9.157       8.276       7.342       6.356       5.318       4.187       2.923       1.520      2.1270E-03
   2    9.998       9.117       8.189       7.200       6.177       5.168       4.086       2.865       1.494      2.0885E-03
   3    9.998       9.043       8.017       6.893       5.749       4.845       3.891       2.761       1.450      2.0221E-03
   4    9.997       8.958       7.791       6.396       4.824       4.322       3.636       2.644       1.403      1.9534E-03
   5    9.997       8.910       7.629       5.828       1.884       3.719       3.456       2.582       1.383      1.9225E-03
   6    9.998       8.965       7.803       6.413       4.843       4.341       3.652       2.655       1.409      1.9621E-03
   7    9.998       9.059       8.046       6.933       5.794       4.888       3.927       2.787       1.463      2.0422E-03
   8    9.998       9.145       8.244       7.275       6.262       5.249       4.154       2.913       1.519      2.1252E-03
   9    9.998       9.206       8.371       7.474       6.505       5.460       4.302       3.003       1.561      2.1880E-03
  10    9.998       9.235       8.432       7.564       6.611       5.556       4.374       3.048       1.582      2.2207E-03
1
              HEAD IN LAYER   2 AT END OF TIME STEP  53 IN STRESS PERIOD    4
  ---------------------------------------------------------------------------

            1           2           3           4           5           6           7           8           9          10
 ........................................................................................................................
   1    9.998       9.152       8.268       7.331       6.343       5.305       4.175       2.913       1.514      4.1627E-03
   2    9.998       9.112       8.180       7.189       6.164       5.155       4.074       2.856       1.488      4.0917E-03
   3    9.998       9.038       8.008       6.881       5.736       4.832       3.879       2.752       1.444      3.9691E-03
   4    9.997       8.952       7.781       6.383       4.812       4.309       3.624       2.635       1.397      3.8417E-03
   5    9.997       8.905       7.619       5.814       2.313       3.710       3.444       2.573       1.377      3.7845E-03
   6    9.997       8.959       7.794       6.400       4.832       4.328       3.640       2.646       1.403      3.8581E-03
   7    9.998       9.054       8.037       6.921       5.781       4.876       3.915       2.778       1.457      4.0066E-03
   8    9.998       9.141       8.235       7.264       6.249       5.237       4.142       2.903       1.513      4.1600E-03
   9    9.998       9.201       8.363       7.463       6.493       5.448       4.291       2.993       1.555      4.2757E-03
  10    9.998       9.231       8.425       7.554       6.599       5.544       4.363       3.039       1.576      4.3361E-03
1
              HEAD IN LAYER   3 AT END OF TIME STEP  53 IN STRESS PERIOD    4
  ---------------------------------------------------------------------------

            1           2           3           4           5           6           7           8           9          10
 ........................................................................................................................
   1    9.998       9.149       8.262       7.323       6.333       5.295       4.165       2.905       1.508      4.4726E-03
   2    9.998       9.109       8.174       7.180       6.154       5.145       4.064       2.847       1.482      4.3964E-03
   3    9.998       9.035       8.001       6.872       5.725       4.821       3.869       2.744       1.438      4.2651E-03
   4    9.997       8.949       7.774       6.373       4.809       4.299       3.614       2.626       1.392      4.1286E-03
   5    9.997       8.901       7.611       5.810       2.678       3.709       3.435       2.565       1.371      4.0674E-03
   6    9.997       8.955       7.787       6.391       4.829       4.318       3.630       2.638       1.398      4.1463E-03
   7    9.998       9.050       8.031       6.913       5.771       4.865       3.906       2.770       1.452      4.3056E-03
   8    9.998       9.138       8.230       7.256       6.240       5.227       4.133       2.895       1.507      4.4701E-03
   9    9.998       9.198       8.358       7.456       6.484       5.438       4.282       2.985       1.549      4.5943E-03
  10    9.998       9.228       8.419       7.546       6.591       5.534       4.354       3.031       1.571      4.6591E-03
1
              HEAD IN LAYER   4 AT END OF TIME STEP  53 IN STRESS PERIOD    4
  ---------------------------------------------------------------------------

            1           2           3           4           5           6           7           8           9          10
 ........................................................................................................................
   1    9.998       9.147       8.259       7.319       6.328       5.290       4.160       2.901       1.505      4.4984E-03
   2    9.998       9.107       8.171       7.176       6.149       5.139       4.059       2.843       1.480      4.4218E-03
   3    9.998       9.033       7.998       6.868       5.720       4.816       3.864       2.739       1.435      4.2896E-03
   4    9.997       8.947       7.771       6.369       4.809       4.294       3.610       2.622       1.389      4.1522E-03
   5    9.997       8.899       7.608       5.810       2.853       3.711       3.430       2.561       1.369      4.0907E-03
   6    9.997       8.954       7.784       6.386       4.829       4.313       3.626       2.634       1.395      4.1702E-03
   7    9.998       9.049       8.028       6.908       5.766       4.860       3.901       2.766       1.449      4.3306E-03
   8    9.998       9.136       8.227       7.252       6.235       5.222       4.128       2.891       1.504      4.4962E-03
   9    9.998       9.197       8.355       7.452       6.479       5.433       4.277       2.981       1.546      4.6212E-03
  10    9.998       9.227       8.417       7.543       6.586       5.530       4.349       3.027       1.568      4.6865E-03

 HEAD WILL BE SAVED ON UNIT   51 AT END OF TIME STEP   53, STRESS PERIOD    4

 DRAWDOWN WILL BE SAVED ON UNIT   52 AT END OF TIME STEP   53, STRESS PERIOD    4
1
  VOLUMETRIC BUDGET FOR ENTIRE MODEL AT END OF TIME STEP   53, STRESS PERIOD   4
  ------------------------------------------------------------------------------

     CUMULATIVE VOLUMES      L**3       RATES FOR THIS TIME STEP      L**3/T
     ------------------                 ------------------------

           IN:                                      IN:
           ---                                      ---
             STORAGE =      493877.0000               STORAGE =         692.0862
       CONSTANT HEAD =           0.0000         CONSTANT HEAD =           0.0000
               WELLS =           0.0000                 WELLS =           0.0000
     HEAD DEP BOUNDS =       53347.0586       HEAD DEP BOUNDS =         549.8950

            TOTAL IN =      547224.0625              TOTAL IN =        1241.9812

          OUT:                                     OUT:
          ----                                     ----
             STORAGE =           0.0000               STORAGE =           0.0000
       CONSTANT HEAD =           0.0000         CONSTANT HEAD =           0.0000
               WELLS =       76500.0000                 WELLS =         500.0000
     HEAD DEP BOUNDS =      470726.1562       HEAD DEP BOUNDS =         742.0037

           TOTAL OUT =      547226.1250             TOTAL OUT =        1242.0037

            IN - OUT =          -2.0625              IN - OUT =      -2.2461E-02

 PERCENT DISCREPANCY =          -0.00     PERCENT DISCREPANCY =          -0.00






         TIME SUMMARY AT END OF TIME STEP   53 IN STRESS PERIOD    4
                    SECONDS     MINUTES      HOURS       DAYS        YEARS
                    -----------------------------------------------------------
   TIME STEP LENGTH  86400.      1440.0      24.000      1.0000     2.73785E-03
 STRESS PERIOD TIME 4.57920E+06  76320.      1272.0      53.000     0.14511    
         TOTAL TIME 2.19456E+07 3.65760E+05  6096.0      254.00     0.69541    
1
 
 SOLVING FOR HEAD 

 OUTPUT CONTROL FOR STRESS PERIOD    4   TIME STEP   54
    SAVE HEAD FOR ALL LAYERS
    SAVE DRAWDOWN FOR ALL LAYERS
    SAVE BUDGET
    PRINT HEAD FOR ALL LAYERS
    PRINT BUDGET
 UBDSV1 SAVING "         STORAGE" ON UNIT  53 AT TIME STEP 54, STRESS PERIOD   4
 UBDSV2 SAVING "   CONSTANT HEAD" ON UNIT  53 AT TIME STEP 54, STRESS PERIOD   4
 UBDSV1 SAVING "FLOW RIGHT FACE " ON UNIT  53 AT TIME STEP 54, STRESS PERIOD   4
 UBDSV1 SAVING "FLOW FRONT FACE " ON UNIT  53 AT TIME STEP 54, STRESS PERIOD   4
 UBDSV1 SAVING "FLOW LOWER FACE " ON UNIT  53 AT TIME STEP 54, STRESS PERIOD   4
1
              HEAD IN LAYER   1 AT END OF TIME STEP  54 IN STRESS PERIOD    4
  ---------------------------------------------------------------------------

            1           2           3           4           5           6           7           8           9          10
 ........................................................................................................................
   1    9.998       9.153       8.269       7.333       6.345       5.307       4.176       2.915       1.515      2.1202E-03
   2    9.998       9.113       8.182       7.190       6.166       5.156       4.076       2.857       1.490      2.0817E-03
   3    9.998       9.040       8.010       6.883       5.738       4.833       3.880       2.753       1.445      2.0152E-03
   4    9.997       8.954       7.783       6.386       4.812       4.310       3.625       2.636       1.399      1.9465E-03
   5    9.997       8.907       7.622       5.818       1.871       3.706       3.445       2.574       1.378      1.9157E-03
   6    9.997       8.961       7.796       6.403       4.832       4.329       3.641       2.647       1.405      1.9553E-03
   7    9.998       9.055       8.039       6.923       5.783       4.877       3.916       2.779       1.459      2.0356E-03
   8    9.998       9.142       8.237       7.266       6.251       5.238       4.143       2.905       1.514      2.1187E-03
   9    9.998       9.202       8.365       7.465       6.494       5.449       4.292       2.995       1.556      2.1817E-03
  10    9.998       9.232       8.426       7.555       6.601       5.546       4.364       3.041       1.578      2.2146E-03
1
              HEAD IN LAYER   2 AT END OF TIME STEP  54 IN STRESS PERIOD    4
  ---------------------------------------------------------------------------

            1           2           3           4           5           6           7           8           9          10
 ........................................................................................................................
   1    9.998       9.148       8.261       7.322       6.332       5.294       4.164       2.905       1.509      4.1505E-03
   2    9.998       9.108       8.173       7.179       6.153       5.143       4.064       2.848       1.484      4.0793E-03
   3    9.998       9.035       8.001       6.871       5.724       4.820       3.868       2.744       1.439      3.9566E-03
   4    9.997       8.949       7.774       6.373       4.800       4.297       3.613       2.626       1.393      3.8291E-03
   5    9.997       8.901       7.612       5.804       2.301       3.698       3.434       2.565       1.372      3.7719E-03
   6    9.997       8.955       7.787       6.390       4.820       4.316       3.629       2.638       1.399      3.8457E-03
   7    9.998       9.050       8.031       6.912       5.770       4.864       3.905       2.770       1.453      3.9945E-03
   8    9.998       9.137       8.229       7.255       6.238       5.226       4.132       2.896       1.508      4.1483E-03
   9    9.998       9.198       8.357       7.454       6.483       5.437       4.281       2.986       1.550      4.2643E-03
  10    9.998       9.228       8.419       7.545       6.589       5.533       4.353       3.032       1.572      4.3249E-03
1
              HEAD IN LAYER   3 AT END OF TIME STEP  54 IN STRESS PERIOD    4
  ---------------------------------------------------------------------------

            1           2           3           4           5           6           7           8           9          10
 ........................................................................................................................
   1    9.998       9.145       8.255       7.313       6.322       5.283       4.154       2.897       1.504      4.4595E-03
   2    9.998       9.105       8.167       7.171       6.143       5.133       4.054       2.839       1.478      4.3832E-03
   3    9.998       9.031       7.994       6.862       5.714       4.810       3.858       2.735       1.434      4.2517E-03
   4    9.997       8.945       7.767       6.363       4.797       4.287       3.604       2.618       1.387      4.1151E-03
   5    9.997       8.897       7.604       5.800       2.666       3.697       3.424       2.556       1.367      4.0539E-03
   6    9.997       8.952       7.780       6.381       4.817       4.306       3.620       2.630       1.393      4.1331E-03
   7    9.998       9.047       8.024       6.903       5.760       4.854       3.895       2.762       1.447      4.2928E-03
   8    9.998       9.134       8.223       7.247       6.229       5.216       4.123       2.888       1.503      4.4576E-03
   9    9.998       9.195       8.352       7.447       6.474       5.427       4.272       2.978       1.545      4.5821E-03
  10    9.998       9.225       8.413       7.538       6.580       5.524       4.344       3.024       1.567      4.6471E-03
1
              HEAD IN LAYER   4 AT END OF TIME STEP  54 IN STRESS PERIOD    4
  ---------------------------------------------------------------------------

            1           2           3           4           5           6           7           8           9          10
 ........................................................................................................................
   1    9.998       9.143       8.252       7.309       6.317       5.278       4.150       2.893       1.501      4.4853E-03
   2    9.998       9.103       8.164       7.166       6.138       5.128       4.049       2.835       1.475      4.4085E-03
   3    9.998       9.029       7.991       6.858       5.709       4.804       3.853       2.731       1.431      4.2762E-03
   4    9.997       8.943       7.763       6.359       4.797       4.282       3.599       2.614       1.385      4.1387E-03
   5    9.997       8.895       7.601       5.800       2.840       3.699       3.420       2.552       1.364      4.0772E-03
   6    9.997       8.950       7.777       6.376       4.818       4.302       3.615       2.626       1.391      4.1569E-03
   7    9.998       9.045       8.021       6.899       5.755       4.849       3.891       2.758       1.445      4.3177E-03
   8    9.998       9.133       8.220       7.243       6.224       5.211       4.118       2.884       1.500      4.4837E-03
   9    9.998       9.193       8.349       7.443       6.469       5.423       4.267       2.974       1.542      4.6090E-03
  10    9.998       9.223       8.410       7.534       6.576       5.519       4.340       3.020       1.564      4.6745E-03

 HEAD WILL BE SAVED ON UNIT   51 AT END OF TIME STEP   54, STRESS PERIOD    4

 DRAWDOWN WILL BE SAVED ON UNIT   52 AT END OF TIME STEP   54, STRESS PERIOD    4
1
  VOLUMETRIC BUDGET FOR ENTIRE MODEL AT END OF TIME STEP   54, STRESS PERIOD   4
  ------------------------------------------------------------------------------

     CUMULATIVE VOLUMES      L**3       RATES FOR THIS TIME STEP      L**3/T
     ------------------                 ------------------------

           IN:                                      IN:
           ---                                      ---
             STORAGE =      494564.7500               STORAGE =         687.7385
       CONSTANT HEAD =           0.0000         CONSTANT HEAD =           0.0000
               WELLS =           0.0000                 WELLS =           0.0000
     HEAD DEP BOUNDS =       53899.0781       HEAD DEP BOUNDS =         552.0183

            TOTAL IN =      548463.8125              TOTAL IN =        1239.7568

          OUT:                                     OUT:
          ----                                     ----
             STORAGE =           0.0000               STORAGE =           0.0000
       CONSTANT HEAD =           0.0000         CONSTANT HEAD =           0.0000
               WELLS =       77000.0000                 WELLS =         500.0000
     HEAD DEP BOUNDS =      471465.9375       HEAD DEP BOUNDS =         739.7716

           TOTAL OUT =      548465.9375             TOTAL OUT =        1239.7716

            IN - OUT =          -2.1250              IN - OUT =      -1.4771E-02

 PERCENT DISCREPANCY =          -0.00     PERCENT DISCREPANCY =          -0.00






         TIME SUMMARY AT END OF TIME STEP   54 IN STRESS PERIOD    4
                    SECONDS     MINUTES      HOURS       DAYS        YEARS
                    -----------------------------------------------------------
   TIME STEP LENGTH  86400.      1440.0      24.000      1.0000     2.73785E-03
 STRESS PERIOD TIME 4.66560E+06  77760.      1296.0      54.000     0.14784    
         TOTAL TIME 2.20320E+07 3.67200E+05  6120.0      255.00     0.69815    
1
 
 SOLVING FOR HEAD 

 OUTPUT CONTROL FOR STRESS PERIOD    4   TIME STEP   55
    SAVE HEAD FOR ALL LAYERS
    SAVE DRAWDOWN FOR ALL LAYERS
    SAVE BUDGET
    PRINT HEAD FOR ALL LAYERS
    PRINT BUDGET
 UBDSV1 SAVING "         STORAGE" ON UNIT  53 AT TIME STEP 55, STRESS PERIOD   4
 UBDSV2 SAVING "   CONSTANT HEAD" ON UNIT  53 AT TIME STEP 55, STRESS PERIOD   4
 UBDSV1 SAVING "FLOW RIGHT FACE " ON UNIT  53 AT TIME STEP 55, STRESS PERIOD   4
 UBDSV1 SAVING "FLOW FRONT FACE " ON UNIT  53 AT TIME STEP 55, STRESS PERIOD   4
 UBDSV1 SAVING "FLOW LOWER FACE " ON UNIT  53 AT TIME STEP 55, STRESS PERIOD   4
1
              HEAD IN LAYER   1 AT END OF TIME STEP  55 IN STRESS PERIOD    4
  ---------------------------------------------------------------------------

            1           2           3           4           5           6           7           8           9          10
 ........................................................................................................................
   1    9.998       9.149       8.262       7.323       6.334       5.295       4.166       2.907       1.511      2.1136E-03
   2    9.998       9.110       8.175       7.181       6.154       5.145       4.065       2.849       1.485      2.0750E-03
   3    9.998       9.036       8.003       6.873       5.726       4.821       3.869       2.745       1.441      2.0084E-03
   4    9.997       8.950       7.776       6.376       4.800       4.298       3.614       2.627       1.394      1.9397E-03
   5    9.997       8.903       7.615       5.808       1.859       3.694       3.434       2.565       1.373      1.9090E-03
   6    9.997       8.957       7.789       6.393       4.820       4.317       3.630       2.639       1.400      1.9486E-03
   7    9.998       9.052       8.032       6.914       5.772       4.865       3.906       2.771       1.454      2.0290E-03
   8    9.998       9.139       8.230       7.257       6.240       5.227       4.133       2.897       1.510      2.1125E-03
   9    9.998       9.199       8.358       7.456       6.484       5.438       4.283       2.988       1.552      2.1755E-03
  10    9.998       9.229       8.420       7.547       6.591       5.535       4.355       3.033       1.574      2.2086E-03
1
              HEAD IN LAYER   2 AT END OF TIME STEP  55 IN STRESS PERIOD    4
  ---------------------------------------------------------------------------

            1           2           3           4           5           6           7           8           9          10
 ........................................................................................................................
   1    9.998       9.145       8.254       7.312       6.321       5.282       4.154       2.897       1.505      4.1383E-03
   2    9.998       9.105       8.166       7.169       6.142       5.132       4.053       2.840       1.479      4.0670E-03
   3    9.998       9.031       7.994       6.861       5.713       4.808       3.857       2.736       1.435      3.9441E-03
   4    9.997       8.945       7.767       6.363       4.788       4.285       3.603       2.618       1.388      3.8166E-03
   5    9.997       8.897       7.604       5.794       2.288       3.686       3.423       2.556       1.368      3.7594E-03
   6    9.997       8.952       7.780       6.381       4.809       4.305       3.619       2.630       1.394      3.8333E-03
   7    9.998       9.047       8.024       6.902       5.759       4.853       3.895       2.762       1.448      3.9825E-03
   8    9.998       9.134       8.222       7.246       6.228       5.215       4.122       2.888       1.504      4.1366E-03
   9    9.998       9.194       8.351       7.446       6.472       5.426       4.272       2.979       1.546      4.2530E-03
  10    9.998       9.225       8.412       7.536       6.579       5.523       4.344       3.024       1.568      4.3138E-03
1
              HEAD IN LAYER   3 AT END OF TIME STEP  55 IN STRESS PERIOD    4
  ---------------------------------------------------------------------------

            1           2           3           4           5           6           7           8           9          10
 ........................................................................................................................
   1    9.998       9.141       8.248       7.304       6.311       5.272       4.144       2.889       1.499      4.4465E-03
   2    9.998       9.101       8.160       7.161       6.132       5.122       4.043       2.831       1.473      4.3702E-03
   3    9.998       9.027       7.987       6.853       5.702       4.798       3.848       2.727       1.429      4.2385E-03
   4    9.997       8.941       7.760       6.353       4.785       4.275       3.593       2.610       1.383      4.1018E-03
   5    9.997       8.893       7.597       5.790       2.653       3.685       3.414       2.548       1.362      4.0406E-03
   6    9.997       8.948       7.773       6.371       4.806       4.295       3.609       2.622       1.389      4.1200E-03
   7    9.998       9.043       8.018       6.894       5.749       4.843       3.885       2.754       1.443      4.2800E-03
   8    9.998       9.131       8.216       7.238       6.218       5.205       4.113       2.880       1.499      4.4452E-03
   9    9.998       9.191       8.345       7.438       6.463       5.417       4.262       2.971       1.541      4.5700E-03
  10    9.998       9.222       8.407       7.529       6.570       5.514       4.335       3.017       1.563      4.6352E-03
1
              HEAD IN LAYER   4 AT END OF TIME STEP  55 IN STRESS PERIOD    4
  ---------------------------------------------------------------------------

            1           2           3           4           5           6           7           8           9          10
 ........................................................................................................................
   1    9.998       9.140       8.245       7.300       6.306       5.267       4.139       2.885       1.496      4.4722E-03
   2    9.998       9.100       8.157       7.157       6.127       5.116       4.038       2.827       1.471      4.3954E-03
   3    9.998       9.026       7.984       6.848       5.697       4.793       3.843       2.723       1.426      4.2629E-03
   4    9.997       8.939       7.756       6.349       4.786       4.270       3.588       2.606       1.380      4.1254E-03
   5    9.997       8.892       7.594       5.790       2.828       3.687       3.409       2.544       1.360      4.0638E-03
   6    9.997       8.946       7.770       6.367       4.806       4.290       3.605       2.618       1.386      4.1437E-03
   7    9.998       9.042       8.015       6.890       5.744       4.838       3.880       2.750       1.440      4.3048E-03
   8    9.998       9.129       8.214       7.234       6.214       5.200       4.108       2.876       1.496      4.4712E-03
   9    9.998       9.190       8.342       7.434       6.459       5.412       4.258       2.967       1.538      4.5969E-03
  10    9.998       9.220       8.404       7.525       6.566       5.509       4.330       3.013       1.560      4.6626E-03

 HEAD WILL BE SAVED ON UNIT   51 AT END OF TIME STEP   55, STRESS PERIOD    4

 DRAWDOWN WILL BE SAVED ON UNIT   52 AT END OF TIME STEP   55, STRESS PERIOD    4
1
  VOLUMETRIC BUDGET FOR ENTIRE MODEL AT END OF TIME STEP   55, STRESS PERIOD   4
  ------------------------------------------------------------------------------

     CUMULATIVE VOLUMES      L**3       RATES FOR THIS TIME STEP      L**3/T
     ------------------                 ------------------------

           IN:                                      IN:
           ---                                      ---
             STORAGE =      495248.1875               STORAGE =         683.4245
       CONSTANT HEAD =           0.0000         CONSTANT HEAD =           0.0000
               WELLS =           0.0000                 WELLS =           0.0000
     HEAD DEP BOUNDS =       54453.1875       HEAD DEP BOUNDS =         554.1104

            TOTAL IN =      549701.3750              TOTAL IN =        1237.5349

          OUT:                                     OUT:
          ----                                     ----
             STORAGE =           0.0000               STORAGE =           0.0000
       CONSTANT HEAD =           0.0000         CONSTANT HEAD =           0.0000
               WELLS =       77500.0000                 WELLS =         500.0000
     HEAD DEP BOUNDS =      472203.5000       HEAD DEP BOUNDS =         737.5574

           TOTAL OUT =      549703.5000             TOTAL OUT =        1237.5574

            IN - OUT =          -2.1250              IN - OUT =      -2.2461E-02

 PERCENT DISCREPANCY =          -0.00     PERCENT DISCREPANCY =          -0.00






         TIME SUMMARY AT END OF TIME STEP   55 IN STRESS PERIOD    4
                    SECONDS     MINUTES      HOURS       DAYS        YEARS
                    -----------------------------------------------------------
   TIME STEP LENGTH  86400.      1440.0      24.000      1.0000     2.73785E-03
 STRESS PERIOD TIME 4.75200E+06  79200.      1320.0      55.000     0.15058    
         TOTAL TIME 2.21184E+07 3.68640E+05  6144.0      256.00     0.70089    
1
 
 SOLVING FOR HEAD 

 OUTPUT CONTROL FOR STRESS PERIOD    4   TIME STEP   56
    SAVE HEAD FOR ALL LAYERS
    SAVE DRAWDOWN FOR ALL LAYERS
    SAVE BUDGET
    PRINT HEAD FOR ALL LAYERS
    PRINT BUDGET
 UBDSV1 SAVING "         STORAGE" ON UNIT  53 AT TIME STEP 56, STRESS PERIOD   4
 UBDSV2 SAVING "   CONSTANT HEAD" ON UNIT  53 AT TIME STEP 56, STRESS PERIOD   4
 UBDSV1 SAVING "FLOW RIGHT FACE " ON UNIT  53 AT TIME STEP 56, STRESS PERIOD   4
 UBDSV1 SAVING "FLOW FRONT FACE " ON UNIT  53 AT TIME STEP 56, STRESS PERIOD   4
 UBDSV1 SAVING "FLOW LOWER FACE " ON UNIT  53 AT TIME STEP 56, STRESS PERIOD   4
1
              HEAD IN LAYER   1 AT END OF TIME STEP  56 IN STRESS PERIOD    4
  ---------------------------------------------------------------------------

            1           2           3           4           5           6           7           8           9          10
 ........................................................................................................................
   1    9.998       9.146       8.256       7.314       6.322       5.284       4.155       2.899       1.507      2.1069E-03
   2    9.998       9.106       8.168       7.171       6.143       5.133       4.054       2.841       1.481      2.0684E-03
   3    9.998       9.032       7.996       6.864       5.714       4.809       3.858       2.737       1.436      2.0019E-03
   4    9.997       8.947       7.769       6.366       4.788       4.286       3.603       2.619       1.390      1.9330E-03
   5    9.997       8.899       7.608       5.798       1.846       3.682       3.423       2.557       1.369      1.9023E-03
   6    9.997       8.954       7.782       6.384       4.808       4.305       3.620       2.631       1.396      1.9420E-03
   7    9.998       9.048       8.026       6.905       5.761       4.854       3.896       2.763       1.450      2.0226E-03
   8    9.998       9.135       8.224       7.248       6.230       5.216       4.124       2.890       1.506      2.1061E-03
   9    9.998       9.196       8.352       7.447       6.474       5.428       4.273       2.980       1.548      2.1694E-03
  10    9.998       9.226       8.414       7.538       6.581       5.525       4.345       3.026       1.570      2.2025E-03
1
              HEAD IN LAYER   2 AT END OF TIME STEP  56 IN STRESS PERIOD    4
  ---------------------------------------------------------------------------

            1           2           3           4           5           6           7           8           9          10
 ........................................................................................................................
   1    9.998       9.141       8.247       7.302       6.310       5.271       4.144       2.889       1.500      4.1261E-03
   2    9.998       9.101       8.159       7.160       6.130       5.120       4.043       2.832       1.475      4.0548E-03
   3    9.998       9.027       7.987       6.852       5.701       4.797       3.847       2.727       1.430      3.9318E-03
   4    9.997       8.941       7.759       6.353       4.777       4.273       3.592       2.610       1.384      3.8041E-03
   5    9.997       8.894       7.597       5.784       2.275       3.674       3.412       2.548       1.363      3.7470E-03
   6    9.997       8.948       7.773       6.371       4.797       4.293       3.608       2.622       1.390      3.8211E-03
   7    9.998       9.043       8.017       6.893       5.748       4.841       3.885       2.754       1.444      3.9706E-03
   8    9.998       9.131       8.216       7.237       6.217       5.204       4.112       2.881       1.500      4.1250E-03
   9    9.998       9.191       8.344       7.437       6.462       5.416       4.262       2.971       1.542      4.2417E-03
  10    9.998       9.221       8.406       7.528       6.569       5.513       4.334       3.017       1.564      4.3027E-03
1
              HEAD IN LAYER   3 AT END OF TIME STEP  56 IN STRESS PERIOD    4
  ---------------------------------------------------------------------------

            1           2           3           4           5           6           7           8           9          10
 ........................................................................................................................
   1    9.998       9.138       8.241       7.294       6.300       5.261       4.134       2.881       1.495      4.4336E-03
   2    9.998       9.098       8.153       7.151       6.121       5.110       4.033       2.823       1.469      4.3571E-03
   3    9.998       9.024       7.980       6.843       5.691       4.786       3.837       2.719       1.425      4.2253E-03
   4    9.997       8.938       7.753       6.344       4.774       4.263       3.582       2.602       1.378      4.0885E-03
   5    9.997       8.890       7.590       5.780       2.641       3.673       3.403       2.540       1.358      4.0274E-03
   6    9.997       8.945       7.766       6.362       4.794       4.283       3.599       2.614       1.385      4.1069E-03
   7    9.998       9.040       8.011       6.885       5.738       4.831       3.875       2.746       1.439      4.2673E-03
   8    9.998       9.127       8.210       7.229       6.208       5.194       4.103       2.873       1.495      4.4329E-03
   9    9.998       9.188       8.339       7.429       6.453       5.406       4.253       2.963       1.537      4.5580E-03
  10    9.998       9.218       8.401       7.521       6.560       5.503       4.325       3.009       1.559      4.6234E-03
1
              HEAD IN LAYER   4 AT END OF TIME STEP  56 IN STRESS PERIOD    4
  ---------------------------------------------------------------------------

            1           2           3           4           5           6           7           8           9          10
 ........................................................................................................................
   1    9.998       9.136       8.238       7.290       6.295       5.255       4.129       2.877       1.492      4.4593E-03
   2    9.998       9.096       8.150       7.147       6.116       5.105       4.028       2.819       1.466      4.3823E-03
   3    9.998       9.022       7.977       6.839       5.686       4.781       3.832       2.715       1.422      4.2497E-03
   4    9.997       8.936       7.749       6.339       4.774       4.259       3.578       2.598       1.376      4.1121E-03
   5    9.997       8.888       7.586       5.780       2.816       3.675       3.398       2.536       1.355      4.0506E-03
   6    9.997       8.943       7.763       6.357       4.795       4.278       3.594       2.610       1.382      4.1306E-03
   7    9.998       9.038       8.008       6.880       5.733       4.826       3.870       2.742       1.436      4.2921E-03
   8    9.998       9.126       8.207       7.225       6.203       5.189       4.098       2.869       1.492      4.4588E-03
   9    9.998       9.187       8.336       7.426       6.449       5.402       4.248       2.959       1.534      4.5849E-03
  10    9.998       9.217       8.398       7.517       6.556       5.499       4.321       3.005       1.556      4.6507E-03

 HEAD WILL BE SAVED ON UNIT   51 AT END OF TIME STEP   56, STRESS PERIOD    4

 DRAWDOWN WILL BE SAVED ON UNIT   52 AT END OF TIME STEP   56, STRESS PERIOD    4
1
  VOLUMETRIC BUDGET FOR ENTIRE MODEL AT END OF TIME STEP   56, STRESS PERIOD   4
  ------------------------------------------------------------------------------

     CUMULATIVE VOLUMES      L**3       RATES FOR THIS TIME STEP      L**3/T
     ------------------                 ------------------------

           IN:                                      IN:
           ---                                      ---
             STORAGE =      495927.3438               STORAGE =         679.1512
       CONSTANT HEAD =           0.0000         CONSTANT HEAD =           0.0000
               WELLS =           0.0000                 WELLS =           0.0000
     HEAD DEP BOUNDS =       55009.3828       HEAD DEP BOUNDS =         556.1964

            TOTAL IN =      550936.7500              TOTAL IN =        1235.3475

          OUT:                                     OUT:
          ----                                     ----
             STORAGE =           0.0000               STORAGE =           0.0000
       CONSTANT HEAD =           0.0000         CONSTANT HEAD =           0.0000
               WELLS =       78000.0000                 WELLS =         500.0000
     HEAD DEP BOUNDS =      472938.8438       HEAD DEP BOUNDS =         735.3576

           TOTAL OUT =      550938.8750             TOTAL OUT =        1235.3577

            IN - OUT =          -2.1250              IN - OUT =      -1.0132E-02

 PERCENT DISCREPANCY =          -0.00     PERCENT DISCREPANCY =          -0.00






         TIME SUMMARY AT END OF TIME STEP   56 IN STRESS PERIOD    4
                    SECONDS     MINUTES      HOURS       DAYS        YEARS
                    -----------------------------------------------------------
   TIME STEP LENGTH  86400.      1440.0      24.000      1.0000     2.73785E-03
 STRESS PERIOD TIME 4.83840E+06  80640.      1344.0      56.000     0.15332    
         TOTAL TIME 2.22048E+07 3.70080E+05  6168.0      257.00     0.70363    
1
 
 SOLVING FOR HEAD 

 OUTPUT CONTROL FOR STRESS PERIOD    4   TIME STEP   57
    SAVE HEAD FOR ALL LAYERS
    SAVE DRAWDOWN FOR ALL LAYERS
    SAVE BUDGET
    PRINT HEAD FOR ALL LAYERS
    PRINT BUDGET
 UBDSV1 SAVING "         STORAGE" ON UNIT  53 AT TIME STEP 57, STRESS PERIOD   4
 UBDSV2 SAVING "   CONSTANT HEAD" ON UNIT  53 AT TIME STEP 57, STRESS PERIOD   4
 UBDSV1 SAVING "FLOW RIGHT FACE " ON UNIT  53 AT TIME STEP 57, STRESS PERIOD   4
 UBDSV1 SAVING "FLOW FRONT FACE " ON UNIT  53 AT TIME STEP 57, STRESS PERIOD   4
 UBDSV1 SAVING "FLOW LOWER FACE " ON UNIT  53 AT TIME STEP 57, STRESS PERIOD   4
1
              HEAD IN LAYER   1 AT END OF TIME STEP  57 IN STRESS PERIOD    4
  ---------------------------------------------------------------------------

            1           2           3           4           5           6           7           8           9          10
 ........................................................................................................................
   1    9.998       9.142       8.249       7.304       6.311       5.272       4.145       2.891       1.502      2.1003E-03
   2    9.998       9.102       8.161       7.162       6.132       5.122       4.044       2.833       1.476      2.0617E-03
   3    9.998       9.029       7.988       6.854       5.703       4.798       3.848       2.729       1.432      1.9952E-03
   4    9.997       8.943       7.762       6.356       4.777       4.274       3.593       2.611       1.385      1.9263E-03
   5    9.997       8.896       7.600       5.788       1.834       3.670       3.412       2.549       1.364      1.8956E-03
   6    9.997       8.950       7.775       6.374       4.797       4.293       3.609       2.623       1.391      1.9354E-03
   7    9.998       9.045       8.019       6.895       5.750       4.843       3.886       2.756       1.446      2.0161E-03
   8    9.998       9.132       8.217       7.239       6.219       5.205       4.114       2.882       1.502      2.0997E-03
   9    9.998       9.192       8.346       7.438       6.464       5.417       4.264       2.973       1.544      2.1633E-03
  10    9.998       9.222       8.407       7.529       6.571       5.514       4.336       3.019       1.566      2.1965E-03
1
              HEAD IN LAYER   2 AT END OF TIME STEP  57 IN STRESS PERIOD    4
  ---------------------------------------------------------------------------

            1           2           3           4           5           6           7           8           9          10
 ........................................................................................................................
   1    9.998       9.137       8.240       7.293       6.299       5.259       4.133       2.881       1.496      4.1141E-03
   2    9.998       9.097       8.152       7.150       6.119       5.109       4.032       2.824       1.470      4.0427E-03
   3    9.998       9.024       7.980       6.842       5.690       4.785       3.836       2.719       1.426      3.9195E-03
   4    9.997       8.938       7.752       6.343       4.765       4.262       3.581       2.602       1.379      3.7918E-03
   5    9.997       8.890       7.590       5.774       2.263       3.662       3.401       2.540       1.359      3.7347E-03
   6    9.997       8.945       7.766       6.361       4.786       4.281       3.598       2.614       1.386      3.8090E-03
   7    9.998       9.040       8.010       6.884       5.737       4.830       3.874       2.747       1.440      3.9587E-03
   8    9.998       9.127       8.209       7.228       6.207       5.193       4.103       2.873       1.496      4.1135E-03
   9    9.998       9.188       8.338       7.428       6.452       5.405       4.252       2.964       1.538      4.2305E-03
  10    9.998       9.218       8.400       7.519       6.559       5.502       4.325       3.010       1.560      4.2916E-03
1
              HEAD IN LAYER   3 AT END OF TIME STEP  57 IN STRESS PERIOD    4
  ---------------------------------------------------------------------------

            1           2           3           4           5           6           7           8           9          10
 ........................................................................................................................
   1    9.998       9.134       8.234       7.285       6.289       5.249       4.124       2.873       1.491      4.4207E-03
   2    9.998       9.094       8.146       7.142       6.109       5.099       4.023       2.815       1.465      4.3442E-03
   3    9.998       9.020       7.973       6.833       5.680       4.775       3.827       2.711       1.420      4.2123E-03
   4    9.997       8.934       7.746       6.334       4.762       4.252       3.572       2.594       1.374      4.0754E-03
   5    9.997       8.886       7.583       5.770       2.629       3.661       3.392       2.532       1.353      4.0143E-03
   6    9.997       8.941       7.759       6.352       4.783       4.272       3.589       2.606       1.380      4.0940E-03
   7    9.998       9.036       8.004       6.875       5.727       4.820       3.865       2.739       1.434      4.2546E-03
   8    9.998       9.124       8.203       7.220       6.198       5.183       4.093       2.865       1.490      4.4206E-03
   9    9.998       9.185       8.333       7.421       6.443       5.396       4.243       2.956       1.533      4.5461E-03
  10    9.998       9.215       8.395       7.512       6.550       5.493       4.316       3.002       1.555      4.6117E-03
1
              HEAD IN LAYER   4 AT END OF TIME STEP  57 IN STRESS PERIOD    4
  ---------------------------------------------------------------------------

            1           2           3           4           5           6           7           8           9          10
 ........................................................................................................................
   1    9.998       9.132       8.231       7.281       6.284       5.244       4.119       2.869       1.488      4.4464E-03
   2    9.998       9.092       8.143       7.138       6.105       5.094       4.018       2.811       1.462      4.3694E-03
   3    9.998       9.018       7.970       6.829       5.675       4.769       3.822       2.707       1.418      4.2366E-03
   4    9.997       8.932       7.742       6.329       4.763       4.247       3.567       2.590       1.371      4.0989E-03
   5    9.997       8.884       7.579       5.770       2.804       3.663       3.388       2.528       1.351      4.0374E-03
   6    9.997       8.939       7.756       6.347       4.783       4.267       3.584       2.602       1.378      4.1177E-03
   7    9.998       9.035       8.001       6.871       5.722       4.815       3.860       2.735       1.432      4.2794E-03
   8    9.998       9.122       8.201       7.216       6.193       5.179       4.089       2.861       1.488      4.4465E-03
   9    9.998       9.183       8.330       7.417       6.439       5.391       4.239       2.952       1.530      4.5729E-03
  10    9.998       9.214       8.392       7.508       6.546       5.489       4.312       2.998       1.552      4.6389E-03

 HEAD WILL BE SAVED ON UNIT   51 AT END OF TIME STEP   57, STRESS PERIOD    4

 DRAWDOWN WILL BE SAVED ON UNIT   52 AT END OF TIME STEP   57, STRESS PERIOD    4
1
  VOLUMETRIC BUDGET FOR ENTIRE MODEL AT END OF TIME STEP   57, STRESS PERIOD   4
  ------------------------------------------------------------------------------

     CUMULATIVE VOLUMES      L**3       RATES FOR THIS TIME STEP      L**3/T
     ------------------                 ------------------------

           IN:                                      IN:
           ---                                      ---
             STORAGE =      496602.2500               STORAGE =         674.8911
       CONSTANT HEAD =           0.0000         CONSTANT HEAD =           0.0000
               WELLS =           0.0000                 WELLS =           0.0000
     HEAD DEP BOUNDS =       55567.6602       HEAD DEP BOUNDS =         558.2766

            TOTAL IN =      552169.9375              TOTAL IN =        1233.1676

          OUT:                                     OUT:
          ----                                     ----
             STORAGE =           0.0000               STORAGE =           0.0000
       CONSTANT HEAD =           0.0000         CONSTANT HEAD =           0.0000
               WELLS =       78500.0000                 WELLS =         500.0000
     HEAD DEP BOUNDS =      473672.0000       HEAD DEP BOUNDS =         733.1705

           TOTAL OUT =      552172.0000             TOTAL OUT =        1233.1705

            IN - OUT =          -2.0625              IN - OUT =      -2.9297E-03

 PERCENT DISCREPANCY =          -0.00     PERCENT DISCREPANCY =          -0.00






         TIME SUMMARY AT END OF TIME STEP   57 IN STRESS PERIOD    4
                    SECONDS     MINUTES      HOURS       DAYS        YEARS
                    -----------------------------------------------------------
   TIME STEP LENGTH  86400.      1440.0      24.000      1.0000     2.73785E-03
 STRESS PERIOD TIME 4.92480E+06  82080.      1368.0      57.000     0.15606    
         TOTAL TIME 2.22912E+07 3.71520E+05  6192.0      258.00     0.70637    
1
 
 SOLVING FOR HEAD 

 OUTPUT CONTROL FOR STRESS PERIOD    4   TIME STEP   58
    SAVE HEAD FOR ALL LAYERS
    SAVE DRAWDOWN FOR ALL LAYERS
    SAVE BUDGET
    PRINT HEAD FOR ALL LAYERS
    PRINT BUDGET
 UBDSV1 SAVING "         STORAGE" ON UNIT  53 AT TIME STEP 58, STRESS PERIOD   4
 UBDSV2 SAVING "   CONSTANT HEAD" ON UNIT  53 AT TIME STEP 58, STRESS PERIOD   4
 UBDSV1 SAVING "FLOW RIGHT FACE " ON UNIT  53 AT TIME STEP 58, STRESS PERIOD   4
 UBDSV1 SAVING "FLOW FRONT FACE " ON UNIT  53 AT TIME STEP 58, STRESS PERIOD   4
 UBDSV1 SAVING "FLOW LOWER FACE " ON UNIT  53 AT TIME STEP 58, STRESS PERIOD   4
1
              HEAD IN LAYER   1 AT END OF TIME STEP  58 IN STRESS PERIOD    4
  ---------------------------------------------------------------------------

            1           2           3           4           5           6           7           8           9          10
 ........................................................................................................................
   1    9.998       9.139       8.242       7.295       6.300       5.261       4.135       2.883       1.498      2.0938E-03
   2    9.998       9.099       8.154       7.152       6.121       5.110       4.034       2.825       1.472      2.0551E-03
   3    9.998       9.025       7.981       6.844       5.692       4.786       3.837       2.721       1.427      1.9886E-03
   4    9.997       8.939       7.755       6.346       4.765       4.262       3.582       2.603       1.381      1.9197E-03
   5    9.997       8.892       7.593       5.778       1.822       3.658       3.402       2.541       1.360      1.8889E-03
   6    9.997       8.946       7.768       6.364       4.786       4.282       3.599       2.615       1.387      1.9288E-03
   7    9.998       9.041       8.012       6.886       5.739       4.832       3.875       2.748       1.441      2.0097E-03
   8    9.998       9.128       8.211       7.230       6.208       5.195       4.104       2.875       1.498      2.0936E-03
   9    9.998       9.189       8.339       7.430       6.453       5.407       4.254       2.965       1.540      2.1571E-03
  10    9.998       9.219       8.401       7.521       6.561       5.504       4.327       3.012       1.562      2.1904E-03
1
              HEAD IN LAYER   2 AT END OF TIME STEP  58 IN STRESS PERIOD    4
  ---------------------------------------------------------------------------

            1           2           3           4           5           6           7           8           9          10
 ........................................................................................................................
   1    9.998       9.134       8.233       7.284       6.288       5.248       4.123       2.874       1.492      4.1021E-03
   2    9.998       9.094       8.145       7.141       6.108       5.098       4.022       2.816       1.466      4.0306E-03
   3    9.998       9.020       7.973       6.832       5.679       4.773       3.826       2.711       1.421      3.9074E-03
   4    9.997       8.934       7.745       6.333       4.754       4.250       3.571       2.594       1.375      3.7795E-03
   5    9.997       8.886       7.583       5.764       2.251       3.650       3.391       2.532       1.354      3.7224E-03
   6    9.997       8.941       7.759       6.352       4.774       4.270       3.588       2.606       1.381      3.7969E-03
   7    9.998       9.036       8.004       6.874       5.726       4.819       3.864       2.739       1.436      3.9470E-03
   8    9.998       9.124       8.203       7.219       6.196       5.182       4.093       2.866       1.492      4.1021E-03
   9    9.998       9.185       8.332       7.419       6.442       5.395       4.243       2.957       1.534      4.2194E-03
  10    9.998       9.215       8.394       7.511       6.549       5.492       4.316       3.003       1.556      4.2807E-03
1
              HEAD IN LAYER   3 AT END OF TIME STEP  58 IN STRESS PERIOD    4
  ---------------------------------------------------------------------------

            1           2           3           4           5           6           7           8           9          10
 ........................................................................................................................
   1    9.998       9.131       8.228       7.276       6.278       5.238       4.113       2.865       1.486      4.4080E-03
   2    9.998       9.090       8.139       7.133       6.098       5.087       4.012       2.808       1.460      4.3314E-03
   3    9.998       9.016       7.966       6.824       5.669       4.763       3.816       2.703       1.416      4.1993E-03
   4    9.997       8.930       7.739       6.324       4.751       4.240       3.561       2.586       1.370      4.0623E-03
   5    9.997       8.883       7.576       5.760       2.617       3.650       3.382       2.524       1.349      4.0012E-03
   6    9.997       8.937       7.752       6.342       4.772       4.260       3.578       2.598       1.376      4.0811E-03
   7    9.998       9.033       7.998       6.866       5.716       4.809       3.855       2.731       1.430      4.2421E-03
   8    9.998       9.121       8.197       7.211       6.187       5.173       4.084       2.858       1.486      4.4085E-03
   9    9.998       9.182       8.326       7.412       6.433       5.386       4.234       2.949       1.529      4.5342E-03
  10    9.998       9.212       8.388       7.504       6.541       5.483       4.307       2.995       1.551      4.6000E-03
1
              HEAD IN LAYER   4 AT END OF TIME STEP  58 IN STRESS PERIOD    4
  ---------------------------------------------------------------------------

            1           2           3           4           5           6           7           8           9          10
 ........................................................................................................................
   1    9.998       9.129       8.225       7.272       6.273       5.233       4.109       2.861       1.483      4.4336E-03
   2    9.998       9.089       8.136       7.128       6.094       5.082       4.008       2.804       1.458      4.3565E-03
   3    9.998       9.015       7.963       6.819       5.664       4.758       3.811       2.699       1.413      4.2236E-03
   4    9.997       8.928       7.735       6.319       4.751       4.235       3.557       2.582       1.367      4.0857E-03
   5    9.997       8.881       7.572       5.760       2.792       3.651       3.377       2.520       1.346      4.0243E-03
   6    9.997       8.936       7.749       6.338       4.772       4.255       3.574       2.594       1.373      4.1048E-03
   7    9.998       9.031       7.994       6.862       5.711       4.804       3.850       2.727       1.428      4.2668E-03
   8    9.998       9.119       8.194       7.207       6.183       5.168       4.079       2.854       1.484      4.4343E-03
   9    9.998       9.180       8.324       7.408       6.429       5.381       4.229       2.945       1.526      4.5610E-03
  10    9.998       9.210       8.386       7.500       6.536       5.478       4.302       2.991       1.548      4.6272E-03

 HEAD WILL BE SAVED ON UNIT   51 AT END OF TIME STEP   58, STRESS PERIOD    4

 DRAWDOWN WILL BE SAVED ON UNIT   52 AT END OF TIME STEP   58, STRESS PERIOD    4
1
  VOLUMETRIC BUDGET FOR ENTIRE MODEL AT END OF TIME STEP   58, STRESS PERIOD   4
  ------------------------------------------------------------------------------

     CUMULATIVE VOLUMES      L**3       RATES FOR THIS TIME STEP      L**3/T
     ------------------                 ------------------------

           IN:                                      IN:
           ---                                      ---
             STORAGE =      497272.9062               STORAGE =         670.6545
       CONSTANT HEAD =           0.0000         CONSTANT HEAD =           0.0000
               WELLS =           0.0000                 WELLS =           0.0000
     HEAD DEP BOUNDS =       56127.9922       HEAD DEP BOUNDS =         560.3306

            TOTAL IN =      553400.8750              TOTAL IN =        1230.9851

          OUT:                                     OUT:
          ----                                     ----
             STORAGE =           0.0000               STORAGE =           0.0000
       CONSTANT HEAD =           0.0000         CONSTANT HEAD =           0.0000
               WELLS =       79000.0000                 WELLS =         500.0000
     HEAD DEP BOUNDS =      474403.0000       HEAD DEP BOUNDS =         730.9972

           TOTAL OUT =      553403.0000             TOTAL OUT =        1230.9972

            IN - OUT =          -2.1250              IN - OUT =      -1.2085E-02

 PERCENT DISCREPANCY =          -0.00     PERCENT DISCREPANCY =          -0.00






         TIME SUMMARY AT END OF TIME STEP   58 IN STRESS PERIOD    4
                    SECONDS     MINUTES      HOURS       DAYS        YEARS
                    -----------------------------------------------------------
   TIME STEP LENGTH  86400.      1440.0      24.000      1.0000     2.73785E-03
 STRESS PERIOD TIME 5.01120E+06  83520.      1392.0      58.000     0.15880    
         TOTAL TIME 2.23776E+07 3.72960E+05  6216.0      259.00     0.70910    
1
 
 SOLVING FOR HEAD 

 OUTPUT CONTROL FOR STRESS PERIOD    4   TIME STEP   59
    SAVE HEAD FOR ALL LAYERS
    SAVE DRAWDOWN FOR ALL LAYERS
    SAVE BUDGET
    PRINT HEAD FOR ALL LAYERS
    PRINT BUDGET
 UBDSV1 SAVING "         STORAGE" ON UNIT  53 AT TIME STEP 59, STRESS PERIOD   4
 UBDSV2 SAVING "   CONSTANT HEAD" ON UNIT  53 AT TIME STEP 59, STRESS PERIOD   4
 UBDSV1 SAVING "FLOW RIGHT FACE " ON UNIT  53 AT TIME STEP 59, STRESS PERIOD   4
 UBDSV1 SAVING "FLOW FRONT FACE " ON UNIT  53 AT TIME STEP 59, STRESS PERIOD   4
 UBDSV1 SAVING "FLOW LOWER FACE " ON UNIT  53 AT TIME STEP 59, STRESS PERIOD   4
1
              HEAD IN LAYER   1 AT END OF TIME STEP  59 IN STRESS PERIOD    4
  ---------------------------------------------------------------------------

            1           2           3           4           5           6           7           8           9          10
 ........................................................................................................................
   1    9.998       9.135       8.235       7.285       6.289       5.250       4.125       2.875       1.493      2.0874E-03
   2    9.998       9.095       8.147       7.143       6.110       5.099       4.023       2.817       1.468      2.0486E-03
   3    9.998       9.021       7.975       6.835       5.680       4.775       3.827       2.713       1.423      1.9820E-03
   4    9.997       8.936       7.748       6.336       4.753       4.250       3.571       2.595       1.376      1.9131E-03
   5    9.997       8.888       7.586       5.768       1.809       3.646       3.391       2.533       1.355      1.8825E-03
   6    9.997       8.943       7.761       6.355       4.774       4.270       3.588       2.607       1.383      1.9226E-03
   7    9.998       9.038       8.005       6.877       5.728       4.820       3.865       2.740       1.437      2.0034E-03
   8    9.998       9.125       8.204       7.221       6.198       5.184       4.094       2.867       1.493      2.0874E-03
   9    9.998       9.186       8.333       7.421       6.443       5.396       4.245       2.958       1.536      2.1511E-03
  10    9.998       9.216       8.395       7.512       6.551       5.494       4.317       3.004       1.558      2.1845E-03
1
              HEAD IN LAYER   2 AT END OF TIME STEP  59 IN STRESS PERIOD    4
  ---------------------------------------------------------------------------

            1           2           3           4           5           6           7           8           9          10
 ........................................................................................................................
   1    9.998       9.130       8.227       7.274       6.277       5.237       4.113       2.866       1.487      4.0902E-03
   2    9.998       9.090       8.139       7.131       6.097       5.086       4.012       2.808       1.462      4.0186E-03
   3    9.998       9.016       7.966       6.823       5.667       4.762       3.815       2.703       1.417      3.8953E-03
   4    9.997       8.930       7.738       6.324       4.742       4.238       3.560       2.586       1.371      3.7673E-03
   5    9.997       8.883       7.576       5.755       2.238       3.638       3.380       2.524       1.350      3.7103E-03
   6    9.997       8.937       7.752       6.342       4.763       4.258       3.577       2.598       1.377      3.7849E-03
   7    9.998       9.033       7.997       6.865       5.715       4.808       3.854       2.731       1.431      3.9353E-03
   8    9.998       9.120       8.196       7.210       6.186       5.172       4.083       2.858       1.488      4.0907E-03
   9    9.998       9.181       8.325       7.411       6.432       5.385       4.234       2.949       1.530      4.2083E-03
  10    9.998       9.212       8.387       7.502       6.539       5.482       4.307       2.996       1.552      4.2698E-03
1
              HEAD IN LAYER   3 AT END OF TIME STEP  59 IN STRESS PERIOD    4
  ---------------------------------------------------------------------------

            1           2           3           4           5           6           7           8           9          10
 ........................................................................................................................
   1    9.998       9.127       8.221       7.266       6.267       5.227       4.103       2.858       1.482      4.3953E-03
   2    9.998       9.087       8.133       7.123       6.088       5.076       4.002       2.800       1.456      4.3186E-03
   3    9.998       9.013       7.959       6.814       5.657       4.752       3.806       2.695       1.412      4.1864E-03
   4    9.997       8.927       7.732       6.314       4.739       4.228       3.551       2.578       1.365      4.0493E-03
   5    9.997       8.879       7.569       5.751       2.604       3.638       3.371       2.516       1.345      3.9883E-03
   6    9.997       8.934       7.745       6.333       4.760       4.249       3.568       2.590       1.372      4.0684E-03
   7    9.998       9.029       7.991       6.857       5.705       4.798       3.845       2.723       1.426      4.2296E-03
   8    9.998       9.117       8.191       7.202       6.177       5.162       4.074       2.850       1.482      4.3964E-03
   9    9.998       9.178       8.320       7.403       6.423       5.375       4.225       2.942       1.525      4.5225E-03
  10    9.998       9.209       8.382       7.495       6.531       5.473       4.298       2.988       1.547      4.5884E-03
1
              HEAD IN LAYER   4 AT END OF TIME STEP  59 IN STRESS PERIOD    4
  ---------------------------------------------------------------------------

            1           2           3           4           5           6           7           8           9          10
 ........................................................................................................................
   1    9.998       9.125       8.218       7.262       6.263       5.222       4.099       2.854       1.479      4.4208E-03
   2    9.998       9.085       8.130       7.119       6.083       5.071       3.997       2.796       1.453      4.3436E-03
   3    9.998       9.011       7.956       6.810       5.652       4.747       3.801       2.691       1.409      4.2106E-03
   4    9.997       8.925       7.728       6.310       4.740       4.224       3.546       2.574       1.363      4.0727E-03
   5    9.997       8.877       7.566       5.750       2.780       3.639       3.367       2.512       1.342      4.0113E-03
   6    9.997       8.932       7.742       6.328       4.761       4.244       3.563       2.586       1.369      4.0919E-03
   7    9.998       9.028       7.988       6.853       5.701       4.793       3.840       2.719       1.423      4.2543E-03
   8    9.998       9.116       8.188       7.198       6.172       5.157       4.069       2.847       1.480      4.4222E-03
   9    9.998       9.177       8.317       7.400       6.419       5.371       4.220       2.938       1.522      4.5492E-03
  10    9.998       9.207       8.380       7.492       6.526       5.468       4.293       2.984       1.544      4.6156E-03

 HEAD WILL BE SAVED ON UNIT   51 AT END OF TIME STEP   59, STRESS PERIOD    4

 DRAWDOWN WILL BE SAVED ON UNIT   52 AT END OF TIME STEP   59, STRESS PERIOD    4
1
  VOLUMETRIC BUDGET FOR ENTIRE MODEL AT END OF TIME STEP   59, STRESS PERIOD   4
  ------------------------------------------------------------------------------

     CUMULATIVE VOLUMES      L**3       RATES FOR THIS TIME STEP      L**3/T
     ------------------                 ------------------------

           IN:                                      IN:
           ---                                      ---
             STORAGE =      497939.3438               STORAGE =         666.4509
       CONSTANT HEAD =           0.0000         CONSTANT HEAD =           0.0000
               WELLS =           0.0000                 WELLS =           0.0000
     HEAD DEP BOUNDS =       56690.3711       HEAD DEP BOUNDS =         562.3788

            TOTAL IN =      554629.6875              TOTAL IN =        1228.8296

          OUT:                                     OUT:
          ----                                     ----
             STORAGE =           0.0000               STORAGE =           0.0000
       CONSTANT HEAD =           0.0000         CONSTANT HEAD =           0.0000
               WELLS =       79500.0000                 WELLS =         500.0000
     HEAD DEP BOUNDS =      475131.8438       HEAD DEP BOUNDS =         728.8427

           TOTAL OUT =      554631.8750             TOTAL OUT =        1228.8428

            IN - OUT =          -2.1875              IN - OUT =      -1.3184E-02

 PERCENT DISCREPANCY =          -0.00     PERCENT DISCREPANCY =          -0.00






         TIME SUMMARY AT END OF TIME STEP   59 IN STRESS PERIOD    4
                    SECONDS     MINUTES      HOURS       DAYS        YEARS
                    -----------------------------------------------------------
   TIME STEP LENGTH  86400.      1440.0      24.000      1.0000     2.73785E-03
 STRESS PERIOD TIME 5.09760E+06  84960.      1416.0      59.000     0.16153    
         TOTAL TIME 2.24640E+07 3.74400E+05  6240.0      260.00     0.71184    
1
 
 SOLVING FOR HEAD 

 OUTPUT CONTROL FOR STRESS PERIOD    4   TIME STEP   60
    SAVE HEAD FOR ALL LAYERS
    SAVE DRAWDOWN FOR ALL LAYERS
    SAVE BUDGET
    PRINT HEAD FOR ALL LAYERS
    PRINT BUDGET
 UBDSV1 SAVING "         STORAGE" ON UNIT  53 AT TIME STEP 60, STRESS PERIOD   4
 UBDSV2 SAVING "   CONSTANT HEAD" ON UNIT  53 AT TIME STEP 60, STRESS PERIOD   4
 UBDSV1 SAVING "FLOW RIGHT FACE " ON UNIT  53 AT TIME STEP 60, STRESS PERIOD   4
 UBDSV1 SAVING "FLOW FRONT FACE " ON UNIT  53 AT TIME STEP 60, STRESS PERIOD   4
 UBDSV1 SAVING "FLOW LOWER FACE " ON UNIT  53 AT TIME STEP 60, STRESS PERIOD   4
1
              HEAD IN LAYER   1 AT END OF TIME STEP  60 IN STRESS PERIOD    4
  ---------------------------------------------------------------------------

            1           2           3           4           5           6           7           8           9          10
 ........................................................................................................................
   1    9.998       9.131       8.228       7.276       6.278       5.238       4.114       2.867       1.489      2.0810E-03
   2    9.998       9.092       8.140       7.133       6.099       5.088       4.013       2.809       1.463      2.0422E-03
   3    9.998       9.018       7.968       6.825       5.669       4.763       3.817       2.705       1.418      1.9754E-03
   4    9.997       8.932       7.741       6.327       4.742       4.239       3.561       2.587       1.372      1.9066E-03
   5    9.997       8.885       7.579       5.759       1.797       3.634       3.381       2.525       1.351      1.8759E-03
   6    9.997       8.939       7.754       6.345       4.763       4.259       3.578       2.599       1.378      1.9161E-03
   7    9.998       9.034       7.999       6.867       5.717       4.809       3.855       2.732       1.433      1.9972E-03
   8    9.998       9.122       8.198       7.212       6.188       5.173       4.084       2.860       1.489      2.0813E-03
   9    9.998       9.182       8.327       7.412       6.433       5.386       4.235       2.951       1.532      2.1451E-03
  10    9.998       9.213       8.389       7.504       6.541       5.484       4.308       2.997       1.554      2.1786E-03
1
              HEAD IN LAYER   2 AT END OF TIME STEP  60 IN STRESS PERIOD    4
  ---------------------------------------------------------------------------

            1           2           3           4           5           6           7           8           9          10
 ........................................................................................................................
   1    9.998       9.127       8.220       7.265       6.266       5.226       4.103       2.858       1.483      4.0784E-03
   2    9.998       9.087       8.132       7.122       6.086       5.075       4.002       2.800       1.457      4.0067E-03
   3    9.998       9.013       7.959       6.813       5.656       4.751       3.805       2.696       1.413      3.8832E-03
   4    9.997       8.927       7.732       6.314       4.731       4.227       3.550       2.578       1.366      3.7552E-03
   5    9.997       8.879       7.569       5.745       2.226       3.627       3.370       2.516       1.345      3.6982E-03
   6    9.997       8.934       7.745       6.333       4.752       4.247       3.567       2.590       1.373      3.7730E-03
   7    9.998       9.029       7.990       6.856       5.704       4.797       3.844       2.724       1.427      3.9237E-03
   8    9.998       9.117       8.190       7.201       6.176       5.161       4.073       2.851       1.484      4.0795E-03
   9    9.998       9.178       8.319       7.402       6.422       5.374       4.224       2.942       1.526      4.1973E-03
  10    9.998       9.208       8.381       7.494       6.530       5.472       4.297       2.989       1.549      4.2589E-03
1
              HEAD IN LAYER   3 AT END OF TIME STEP  60 IN STRESS PERIOD    4
  ---------------------------------------------------------------------------

            1           2           3           4           5           6           7           8           9          10
 ........................................................................................................................
   1    9.998       9.124       8.214       7.257       6.257       5.216       4.093       2.850       1.478      4.3827E-03
   2    9.998       9.083       8.126       7.114       6.077       5.065       3.992       2.792       1.452      4.3059E-03
   3    9.998       9.009       7.953       6.805       5.646       4.740       3.796       2.688       1.407      4.1736E-03
   4    9.997       8.923       7.725       6.305       4.728       4.217       3.540       2.570       1.361      4.0364E-03
   5    9.997       8.875       7.562       5.741       2.592       3.626       3.361       2.508       1.340      3.9754E-03
   6    9.997       8.930       7.739       6.324       4.749       4.237       3.558       2.582       1.367      4.0557E-03
   7    9.998       9.026       7.984       6.848       5.695       4.787       3.835       2.716       1.422      4.2173E-03
   8    9.998       9.114       8.184       7.194       6.167       5.152       4.064       2.843       1.478      4.3843E-03
   9    9.998       9.175       8.314       7.395       6.413       5.365       4.215       2.934       1.521      4.5107E-03
  10    9.998       9.205       8.376       7.487       6.521       5.463       4.289       2.981       1.543      4.5768E-03
1
              HEAD IN LAYER   4 AT END OF TIME STEP  60 IN STRESS PERIOD    4
  ---------------------------------------------------------------------------

            1           2           3           4           5           6           7           8           9          10
 ........................................................................................................................
   1    9.998       9.122       8.211       7.253       6.252       5.211       4.089       2.846       1.475      4.4082E-03
   2    9.998       9.082       8.123       7.110       6.072       5.060       3.987       2.788       1.449      4.3309E-03
   3    9.998       9.008       7.950       6.800       5.641       4.735       3.791       2.684       1.405      4.1978E-03
   4    9.997       8.921       7.721       6.300       4.728       4.212       3.536       2.566       1.358      4.0598E-03
   5    9.997       8.873       7.559       5.741       2.768       3.628       3.357       2.504       1.338      3.9984E-03
   6    9.997       8.929       7.735       6.319       4.750       4.233       3.553       2.578       1.365      4.0792E-03
   7    9.998       9.024       7.981       6.844       5.690       4.782       3.831       2.712       1.419      4.2419E-03
   8    9.998       9.112       8.181       7.190       6.162       5.147       4.060       2.839       1.476      4.4101E-03
   9    9.998       9.174       8.311       7.391       6.409       5.360       4.211       2.931       1.518      4.5374E-03
  10    9.998       9.204       8.374       7.483       6.517       5.458       4.284       2.977       1.541      4.6040E-03

 HEAD WILL BE SAVED ON UNIT   51 AT END OF TIME STEP   60, STRESS PERIOD    4

 DRAWDOWN WILL BE SAVED ON UNIT   52 AT END OF TIME STEP   60, STRESS PERIOD    4
1
  VOLUMETRIC BUDGET FOR ENTIRE MODEL AT END OF TIME STEP   60, STRESS PERIOD   4
  ------------------------------------------------------------------------------

     CUMULATIVE VOLUMES      L**3       RATES FOR THIS TIME STEP      L**3/T
     ------------------                 ------------------------

           IN:                                      IN:
           ---                                      ---
             STORAGE =      498601.6250               STORAGE =         662.2818
       CONSTANT HEAD =           0.0000         CONSTANT HEAD =           0.0000
               WELLS =           0.0000                 WELLS =           0.0000
     HEAD DEP BOUNDS =       57254.7734       HEAD DEP BOUNDS =         564.4039

            TOTAL IN =      555856.3750              TOTAL IN =        1226.6858

          OUT:                                     OUT:
          ----                                     ----
             STORAGE =           0.0000               STORAGE =           0.0000
       CONSTANT HEAD =           0.0000         CONSTANT HEAD =           0.0000
               WELLS =       80000.0000                 WELLS =         500.0000
     HEAD DEP BOUNDS =      475858.5312       HEAD DEP BOUNDS =         726.7001

           TOTAL OUT =      555858.5000             TOTAL OUT =        1226.7002

            IN - OUT =          -2.1250              IN - OUT =      -1.4404E-02

 PERCENT DISCREPANCY =          -0.00     PERCENT DISCREPANCY =          -0.00






         TIME SUMMARY AT END OF TIME STEP   60 IN STRESS PERIOD    4
                    SECONDS     MINUTES      HOURS       DAYS        YEARS
                    -----------------------------------------------------------
   TIME STEP LENGTH  86400.      1440.0      24.000      1.0000     2.73785E-03
 STRESS PERIOD TIME 5.18400E+06  86400.      1440.0      60.000     0.16427    
         TOTAL TIME 2.25504E+07 3.75840E+05  6264.0      261.00     0.71458    
1
 
 SOLVING FOR HEAD 

 OUTPUT CONTROL FOR STRESS PERIOD    4   TIME STEP   61
    SAVE HEAD FOR ALL LAYERS
    SAVE DRAWDOWN FOR ALL LAYERS
    SAVE BUDGET
    PRINT HEAD FOR ALL LAYERS
    PRINT BUDGET
 UBDSV1 SAVING "         STORAGE" ON UNIT  53 AT TIME STEP 61, STRESS PERIOD   4
 UBDSV2 SAVING "   CONSTANT HEAD" ON UNIT  53 AT TIME STEP 61, STRESS PERIOD   4
 UBDSV1 SAVING "FLOW RIGHT FACE " ON UNIT  53 AT TIME STEP 61, STRESS PERIOD   4
 UBDSV1 SAVING "FLOW FRONT FACE " ON UNIT  53 AT TIME STEP 61, STRESS PERIOD   4
 UBDSV1 SAVING "FLOW LOWER FACE " ON UNIT  53 AT TIME STEP 61, STRESS PERIOD   4
1
              HEAD IN LAYER   1 AT END OF TIME STEP  61 IN STRESS PERIOD    4
  ---------------------------------------------------------------------------

            1           2           3           4           5           6           7           8           9          10
 ........................................................................................................................
   1    9.998       9.128       8.221       7.267       6.268       5.227       4.104       2.860       1.485      2.0746E-03
   2    9.998       9.088       8.133       7.124       6.088       5.076       4.003       2.801       1.459      2.0357E-03
   3    9.998       9.014       7.961       6.816       5.658       4.752       3.806       2.697       1.414      1.9689E-03
   4    9.997       8.928       7.734       6.317       4.731       4.227       3.550       2.579       1.367      1.9000E-03
   5    9.997       8.881       7.573       5.749       1.785       3.623       3.370       2.517       1.347      1.8694E-03
   6    9.997       8.936       7.748       6.336       4.752       4.247       3.568       2.591       1.374      1.9096E-03
   7    9.998       9.031       7.992       6.858       5.706       4.798       3.845       2.725       1.429      1.9909E-03
   8    9.998       9.118       8.191       7.203       6.177       5.163       4.075       2.852       1.485      2.0751E-03
   9    9.998       9.179       8.321       7.404       6.423       5.376       4.226       2.944       1.528      2.1390E-03
  10    9.998       9.209       8.383       7.495       6.531       5.474       4.299       2.990       1.550      2.1725E-03
1
              HEAD IN LAYER   2 AT END OF TIME STEP  61 IN STRESS PERIOD    4
  ---------------------------------------------------------------------------

            1           2           3           4           5           6           7           8           9          10
 ........................................................................................................................
   1    9.998       9.123       8.213       7.256       6.255       5.215       4.093       2.850       1.479      4.0666E-03
   2    9.998       9.083       8.125       7.113       6.075       5.064       3.992       2.792       1.453      3.9949E-03
   3    9.998       9.009       7.952       6.804       5.645       4.739       3.795       2.688       1.408      3.8713E-03
   4    9.997       8.923       7.725       6.304       4.719       4.215       3.539       2.570       1.362      3.7432E-03
   5    9.997       8.876       7.562       5.735       2.214       3.615       3.360       2.508       1.341      3.6862E-03
   6    9.997       8.930       7.738       6.323       4.741       4.236       3.557       2.582       1.368      3.7612E-03
   7    9.998       9.026       7.984       6.847       5.694       4.786       3.834       2.716       1.423      3.9121E-03
   8    9.998       9.114       8.184       7.193       6.165       5.151       4.064       2.843       1.480      4.0682E-03
   9    9.998       9.175       8.313       7.394       6.412       5.364       4.215       2.935       1.522      4.1864E-03
  10    9.998       9.205       8.375       7.486       6.520       5.462       4.288       2.982       1.545      4.2481E-03
1
              HEAD IN LAYER   3 AT END OF TIME STEP  61 IN STRESS PERIOD    4
  ---------------------------------------------------------------------------

            1           2           3           4           5           6           7           8           9          10
 ........................................................................................................................
   1    9.998       9.120       8.208       7.248       6.246       5.205       4.083       2.842       1.474      4.3702E-03
   2    9.998       9.080       8.119       7.105       6.066       5.054       3.982       2.784       1.448      4.2933E-03
   3    9.998       9.006       7.946       6.795       5.635       4.729       3.785       2.680       1.403      4.1608E-03
   4    9.997       8.920       7.718       6.295       4.717       4.205       3.530       2.562       1.357      4.0236E-03
   5    9.997       8.872       7.555       5.731       2.581       3.615       3.351       2.500       1.336      3.9626E-03
   6    9.997       8.927       7.732       6.314       4.738       4.226       3.548       2.575       1.363      4.0431E-03
   7    9.998       9.023       7.978       6.839       5.684       4.776       3.825       2.708       1.418      4.2050E-03
   8    9.998       9.111       8.178       7.185       6.156       5.141       4.055       2.836       1.474      4.3724E-03
   9    9.998       9.172       8.308       7.386       6.403       5.355       4.206       2.927       1.517      4.4991E-03
  10    9.998       9.202       8.370       7.478       6.511       5.453       4.279       2.974       1.539      4.5654E-03
1
              HEAD IN LAYER   4 AT END OF TIME STEP  61 IN STRESS PERIOD    4
  ---------------------------------------------------------------------------

            1           2           3           4           5           6           7           8           9          10
 ........................................................................................................................
   1    9.998       9.118       8.205       7.244       6.241       5.200       4.079       2.838       1.471      4.3956E-03
   2    9.998       9.078       8.116       7.101       6.061       5.049       3.977       2.780       1.445      4.3183E-03
   3    9.998       9.004       7.943       6.791       5.630       4.724       3.781       2.676       1.400      4.1850E-03
   4    9.997       8.918       7.715       6.291       4.717       4.201       3.526       2.558       1.354      4.0469E-03
   5    9.997       8.870       7.552       5.731       2.756       3.616       3.346       2.497       1.333      3.9856E-03
   6    9.997       8.925       7.729       6.310       4.739       4.221       3.543       2.571       1.361      4.0666E-03
   7    9.998       9.021       7.975       6.835       5.679       4.772       3.821       2.704       1.415      4.2296E-03
   8    9.998       9.109       8.175       7.181       6.152       5.136       4.050       2.832       1.472      4.3981E-03
   9    9.998       9.170       8.305       7.383       6.399       5.350       4.202       2.924       1.514      4.5257E-03
  10    9.998       9.201       8.367       7.475       6.507       5.448       4.275       2.970       1.537      4.5925E-03

 HEAD WILL BE SAVED ON UNIT   51 AT END OF TIME STEP   61, STRESS PERIOD    4

 DRAWDOWN WILL BE SAVED ON UNIT   52 AT END OF TIME STEP   61, STRESS PERIOD    4
1
  VOLUMETRIC BUDGET FOR ENTIRE MODEL AT END OF TIME STEP   61, STRESS PERIOD   4
  ------------------------------------------------------------------------------

     CUMULATIVE VOLUMES      L**3       RATES FOR THIS TIME STEP      L**3/T
     ------------------                 ------------------------

           IN:                                      IN:
           ---                                      ---
             STORAGE =      499259.7500               STORAGE =         658.1302
       CONSTANT HEAD =           0.0000         CONSTANT HEAD =           0.0000
               WELLS =           0.0000                 WELLS =           0.0000
     HEAD DEP BOUNDS =       57821.1914       HEAD DEP BOUNDS =         566.4167

            TOTAL IN =      557080.9375              TOTAL IN =        1224.5470

          OUT:                                     OUT:
          ----                                     ----
             STORAGE =           0.0000               STORAGE =           0.0000
       CONSTANT HEAD =           0.0000         CONSTANT HEAD =           0.0000
               WELLS =       80500.0000                 WELLS =         500.0000
     HEAD DEP BOUNDS =      476583.0938       HEAD DEP BOUNDS =         724.5660

           TOTAL OUT =      557083.1250             TOTAL OUT =        1224.5659

            IN - OUT =          -2.1875              IN - OUT =      -1.8921E-02

 PERCENT DISCREPANCY =          -0.00     PERCENT DISCREPANCY =          -0.00






         TIME SUMMARY AT END OF TIME STEP   61 IN STRESS PERIOD    4
                    SECONDS     MINUTES      HOURS       DAYS        YEARS
                    -----------------------------------------------------------
   TIME STEP LENGTH  86400.      1440.0      24.000      1.0000     2.73785E-03
 STRESS PERIOD TIME 5.27040E+06  87840.      1464.0      61.000     0.16701    
         TOTAL TIME 2.26368E+07 3.77280E+05  6288.0      262.00     0.71732    
1
 
 SOLVING FOR HEAD 

 OUTPUT CONTROL FOR STRESS PERIOD    4   TIME STEP   62
    SAVE HEAD FOR ALL LAYERS
    SAVE DRAWDOWN FOR ALL LAYERS
    SAVE BUDGET
    PRINT HEAD FOR ALL LAYERS
    PRINT BUDGET
 UBDSV1 SAVING "         STORAGE" ON UNIT  53 AT TIME STEP 62, STRESS PERIOD   4
 UBDSV2 SAVING "   CONSTANT HEAD" ON UNIT  53 AT TIME STEP 62, STRESS PERIOD   4
 UBDSV1 SAVING "FLOW RIGHT FACE " ON UNIT  53 AT TIME STEP 62, STRESS PERIOD   4
 UBDSV1 SAVING "FLOW FRONT FACE " ON UNIT  53 AT TIME STEP 62, STRESS PERIOD   4
 UBDSV1 SAVING "FLOW LOWER FACE " ON UNIT  53 AT TIME STEP 62, STRESS PERIOD   4
1
              HEAD IN LAYER   1 AT END OF TIME STEP  62 IN STRESS PERIOD    4
  ---------------------------------------------------------------------------

            1           2           3           4           5           6           7           8           9          10
 ........................................................................................................................
   1    9.998       9.124       8.215       7.257       6.257       5.216       4.094       2.852       1.481      2.0681E-03
   2    9.998       9.084       8.127       7.114       6.077       5.065       3.993       2.794       1.455      2.0294E-03
   3    9.998       9.011       7.954       6.806       5.647       4.740       3.796       2.689       1.410      1.9627E-03
   4    9.997       8.925       7.727       6.307       4.719       4.216       3.540       2.571       1.363      1.8935E-03
   5    9.997       8.878       7.566       5.739       1.773       3.611       3.360       2.509       1.342      1.8630E-03
   6    9.997       8.932       7.741       6.326       4.741       4.236       3.557       2.583       1.370      1.9032E-03
   7    9.998       9.027       7.986       6.849       5.696       4.787       3.836       2.717       1.424      1.9847E-03
   8    9.998       9.115       8.185       7.194       6.167       5.152       4.065       2.845       1.481      2.0691E-03
   9    9.998       9.176       8.314       7.395       6.413       5.366       4.216       2.937       1.524      2.1331E-03
  10    9.998       9.206       8.377       7.487       6.521       5.463       4.290       2.983       1.546      2.1668E-03
1
              HEAD IN LAYER   2 AT END OF TIME STEP  62 IN STRESS PERIOD    4
  ---------------------------------------------------------------------------

            1           2           3           4           5           6           7           8           9          10
 ........................................................................................................................
   1    9.998       9.120       8.207       7.247       6.245       5.204       4.083       2.843       1.475      4.0549E-03
   2    9.998       9.080       8.118       7.103       6.065       5.053       3.981       2.785       1.449      3.9831E-03
   3    9.998       9.006       7.945       6.795       5.634       4.728       3.785       2.680       1.404      3.8594E-03
   4    9.997       8.920       7.718       6.295       4.708       4.204       3.529       2.562       1.357      3.7313E-03
   5    9.997       8.872       7.556       5.726       2.202       3.603       3.349       2.500       1.337      3.6743E-03
   6    9.997       8.927       7.732       6.314       4.730       4.224       3.547       2.575       1.364      3.7495E-03
   7    9.998       9.023       7.977       6.838       5.683       4.775       3.825       2.708       1.419      3.9007E-03
   8    9.998       9.110       8.177       7.184       6.155       5.140       4.054       2.836       1.475      4.0571E-03
   9    9.998       9.172       8.307       7.385       6.402       5.354       4.206       2.928       1.518      4.1755E-03
  10    9.998       9.202       8.369       7.477       6.510       5.452       4.279       2.975       1.541      4.2375E-03
1
              HEAD IN LAYER   3 AT END OF TIME STEP  62 IN STRESS PERIOD    4
  ---------------------------------------------------------------------------

            1           2           3           4           5           6           7           8           9          10
 ........................................................................................................................
   1    9.998       9.117       8.201       7.239       6.235       5.194       4.073       2.835       1.469      4.3577E-03
   2    9.998       9.076       8.112       7.095       6.055       5.043       3.972       2.777       1.443      4.2808E-03
   3    9.998       9.002       7.939       6.786       5.624       4.718       3.775       2.672       1.399      4.1482E-03
   4    9.997       8.916       7.711       6.286       4.706       4.194       3.520       2.554       1.352      4.0109E-03
   5    9.997       8.868       7.549       5.722       2.569       3.603       3.340       2.493       1.332      3.9499E-03
   6    9.997       8.923       7.725       6.305       4.727       4.215       3.538       2.567       1.359      4.0306E-03
   7    9.998       9.019       7.971       6.830       5.674       4.766       3.816       2.701       1.414      4.1927E-03
   8    9.998       9.107       8.172       7.176       6.146       5.131       4.045       2.829       1.470      4.3605E-03
   9    9.998       9.169       8.302       7.378       6.393       5.345       4.197       2.920       1.513      4.4875E-03
  10    9.998       9.199       8.364       7.470       6.502       5.443       4.270       2.967       1.535      4.5540E-03
1
              HEAD IN LAYER   4 AT END OF TIME STEP  62 IN STRESS PERIOD    4
  ---------------------------------------------------------------------------

            1           2           3           4           5           6           7           8           9          10
 ........................................................................................................................
   1    9.998       9.115       8.198       7.235       6.231       5.189       4.069       2.831       1.467      4.3831E-03
   2    9.998       9.075       8.109       7.091       6.050       5.038       3.967       2.773       1.441      4.3057E-03
   3    9.998       9.001       7.936       6.782       5.620       4.713       3.771       2.668       1.396      4.1723E-03
   4    9.997       8.914       7.708       6.281       4.706       4.189       3.515       2.550       1.350      4.0341E-03
   5    9.997       8.866       7.545       5.722       2.744       3.605       3.336       2.489       1.329      3.9728E-03
   6    9.997       8.922       7.722       6.300       4.728       4.210       3.533       2.563       1.356      4.0540E-03
   7    9.998       9.018       7.968       6.826       5.669       4.761       3.811       2.697       1.411      4.2173E-03
   8    9.998       9.106       8.169       7.172       6.142       5.126       4.041       2.825       1.468      4.3862E-03
   9    9.998       9.167       8.299       7.374       6.389       5.340       4.192       2.917       1.510      4.5141E-03
  10    9.998       9.198       8.361       7.467       6.497       5.438       4.266       2.963       1.533      4.5810E-03

 HEAD WILL BE SAVED ON UNIT   51 AT END OF TIME STEP   62, STRESS PERIOD    4

 DRAWDOWN WILL BE SAVED ON UNIT   52 AT END OF TIME STEP   62, STRESS PERIOD    4
1
  VOLUMETRIC BUDGET FOR ENTIRE MODEL AT END OF TIME STEP   62, STRESS PERIOD   4
  ------------------------------------------------------------------------------

     CUMULATIVE VOLUMES      L**3       RATES FOR THIS TIME STEP      L**3/T
     ------------------                 ------------------------

           IN:                                      IN:
           ---                                      ---
             STORAGE =      499913.7500               STORAGE =         654.0044
       CONSTANT HEAD =           0.0000         CONSTANT HEAD =           0.0000
               WELLS =           0.0000                 WELLS =           0.0000
     HEAD DEP BOUNDS =       58389.6250       HEAD DEP BOUNDS =         568.4327

            TOTAL IN =      558303.3750              TOTAL IN =        1222.4370

          OUT:                                     OUT:
          ----                                     ----
             STORAGE =           0.0000               STORAGE =           0.0000
       CONSTANT HEAD =           0.0000         CONSTANT HEAD =           0.0000
               WELLS =       81000.0000                 WELLS =         500.0000
     HEAD DEP BOUNDS =      477305.5312       HEAD DEP BOUNDS =         722.4521

           TOTAL OUT =      558305.5000             TOTAL OUT =        1222.4521

            IN - OUT =          -2.1250              IN - OUT =      -1.5137E-02

 PERCENT DISCREPANCY =          -0.00     PERCENT DISCREPANCY =          -0.00






         TIME SUMMARY AT END OF TIME STEP   62 IN STRESS PERIOD    4
                    SECONDS     MINUTES      HOURS       DAYS        YEARS
                    -----------------------------------------------------------
   TIME STEP LENGTH  86400.      1440.0      24.000      1.0000     2.73785E-03
 STRESS PERIOD TIME 5.35680E+06  89280.      1488.0      62.000     0.16975    
         TOTAL TIME 2.27232E+07 3.78720E+05  6312.0      263.00     0.72005    
1
 
 SOLVING FOR HEAD 

 OUTPUT CONTROL FOR STRESS PERIOD    4   TIME STEP   63
    SAVE HEAD FOR ALL LAYERS
    SAVE DRAWDOWN FOR ALL LAYERS
    SAVE BUDGET
    PRINT HEAD FOR ALL LAYERS
    PRINT BUDGET
 UBDSV1 SAVING "         STORAGE" ON UNIT  53 AT TIME STEP 63, STRESS PERIOD   4
 UBDSV2 SAVING "   CONSTANT HEAD" ON UNIT  53 AT TIME STEP 63, STRESS PERIOD   4
 UBDSV1 SAVING "FLOW RIGHT FACE " ON UNIT  53 AT TIME STEP 63, STRESS PERIOD   4
 UBDSV1 SAVING "FLOW FRONT FACE " ON UNIT  53 AT TIME STEP 63, STRESS PERIOD   4
 UBDSV1 SAVING "FLOW LOWER FACE " ON UNIT  53 AT TIME STEP 63, STRESS PERIOD   4
1
              HEAD IN LAYER   1 AT END OF TIME STEP  63 IN STRESS PERIOD    4
  ---------------------------------------------------------------------------

            1           2           3           4           5           6           7           8           9          10
 ........................................................................................................................
   1    9.998       9.121       8.208       7.248       6.246       5.205       4.084       2.844       1.476      2.0619E-03
   2    9.998       9.081       8.120       7.105       6.066       5.054       3.983       2.786       1.450      2.0230E-03
   3    9.998       9.007       7.947       6.797       5.636       4.729       3.786       2.681       1.405      1.9563E-03
   4    9.997       8.921       7.720       6.298       4.708       4.204       3.530       2.563       1.359      1.8872E-03
   5    9.997       8.874       7.559       5.730       1.761       3.600       3.349       2.501       1.338      1.8565E-03
   6    9.997       8.929       7.734       6.317       4.730       4.225       3.547       2.576       1.365      1.8970E-03
   7    9.998       9.024       7.979       6.840       5.685       4.777       3.826       2.710       1.420      1.9784E-03
   8    9.998       9.112       8.179       7.186       6.157       5.142       4.056       2.838       1.477      2.0631E-03
   9    9.998       9.173       8.308       7.387       6.404       5.355       4.207       2.929       1.520      2.1274E-03
  10    9.998       9.203       8.371       7.479       6.512       5.453       4.281       2.976       1.543      2.1610E-03
1
              HEAD IN LAYER   2 AT END OF TIME STEP  63 IN STRESS PERIOD    4
  ---------------------------------------------------------------------------

            1           2           3           4           5           6           7           8           9          10
 ........................................................................................................................
   1    9.998       9.116       8.200       7.238       6.234       5.193       4.073       2.835       1.471      4.0433E-03
   2    9.998       9.076       8.112       7.094       6.054       5.042       3.972       2.777       1.445      3.9714E-03
   3    9.998       9.002       7.939       6.785       5.623       4.717       3.775       2.672       1.400      3.8476E-03
   4    9.997       8.916       7.711       6.285       4.697       4.192       3.519       2.554       1.353      3.7194E-03
   5    9.997       8.869       7.549       5.716       2.190       3.592       3.339       2.493       1.333      3.6625E-03
   6    9.997       8.923       7.725       6.305       4.719       4.213       3.537       2.567       1.360      3.7378E-03
   7    9.998       9.019       7.971       6.829       5.673       4.765       3.815       2.701       1.415      3.8893E-03
   8    9.998       9.107       8.171       7.175       6.145       5.130       4.045       2.829       1.471      4.0460E-03
   9    9.998       9.168       8.301       7.377       6.392       5.344       4.197       2.921       1.514      4.1647E-03
  10    9.998       9.199       8.363       7.469       6.500       5.442       4.270       2.968       1.537      4.2268E-03
1
              HEAD IN LAYER   3 AT END OF TIME STEP  63 IN STRESS PERIOD    4
  ---------------------------------------------------------------------------

            1           2           3           4           5           6           7           8           9          10
 ........................................................................................................................
   1    9.998       9.113       8.194       7.230       6.225       5.183       4.064       2.827       1.465      4.3453E-03
   2    9.998       9.073       8.106       7.086       6.044       5.032       3.962       2.769       1.439      4.2683E-03
   3    9.998       8.999       7.932       6.777       5.614       4.707       3.765       2.664       1.394      4.1356E-03
   4    9.997       8.912       7.704       6.276       4.694       4.183       3.510       2.547       1.348      3.9983E-03
   5    9.997       8.865       7.542       5.712       2.557       3.592       3.330       2.485       1.327      3.9373E-03
   6    9.997       8.920       7.719       6.296       4.716       4.204       3.528       2.559       1.355      4.0181E-03
   7    9.998       9.016       7.965       6.821       5.663       4.755       3.806       2.693       1.410      4.1806E-03
   8    9.998       9.104       8.165       7.168       6.136       5.120       4.036       2.821       1.466      4.3487E-03
   9    9.998       9.165       8.296       7.370       6.384       5.335       4.188       2.913       1.509      4.4760E-03
  10    9.998       9.196       8.358       7.462       6.492       5.433       4.261       2.960       1.532      4.5426E-03
1
              HEAD IN LAYER   4 AT END OF TIME STEP  63 IN STRESS PERIOD    4
  ---------------------------------------------------------------------------

            1           2           3           4           5           6           7           8           9          10
 ........................................................................................................................
   1    9.998       9.112       8.191       7.226       6.220       5.178       4.059       2.823       1.462      4.3707E-03
   2    9.998       9.071       8.103       7.082       6.040       5.027       3.957       2.765       1.437      4.2932E-03
   3    9.997       8.997       7.929       6.773       5.609       4.702       3.761       2.660       1.392      4.1597E-03
   4    9.997       8.911       7.701       6.272       4.695       4.178       3.505       2.543       1.345      4.0215E-03
   5    9.997       8.863       7.538       5.712       2.732       3.593       3.326       2.481       1.325      3.9602E-03
   6    9.997       8.918       7.715       6.291       4.717       4.199       3.523       2.556       1.352      4.0416E-03
   7    9.998       9.014       7.962       6.817       5.659       4.750       3.801       2.690       1.407      4.2051E-03
   8    9.998       9.103       8.163       7.164       6.132       5.116       4.032       2.818       1.464      4.3744E-03
   9    9.998       9.164       8.293       7.366       6.379       5.330       4.183       2.910       1.507      4.5025E-03
  10    9.998       9.195       8.356       7.458       6.488       5.428       4.257       2.956       1.529      4.5696E-03

 HEAD WILL BE SAVED ON UNIT   51 AT END OF TIME STEP   63, STRESS PERIOD    4

 DRAWDOWN WILL BE SAVED ON UNIT   52 AT END OF TIME STEP   63, STRESS PERIOD    4
1
  VOLUMETRIC BUDGET FOR ENTIRE MODEL AT END OF TIME STEP   63, STRESS PERIOD   4
  ------------------------------------------------------------------------------

     CUMULATIVE VOLUMES      L**3       RATES FOR THIS TIME STEP      L**3/T
     ------------------                 ------------------------

           IN:                                      IN:
           ---                                      ---
             STORAGE =      500563.6562               STORAGE =         649.9097
       CONSTANT HEAD =           0.0000         CONSTANT HEAD =           0.0000
               WELLS =           0.0000                 WELLS =           0.0000
     HEAD DEP BOUNDS =       58960.0586       HEAD DEP BOUNDS =         570.4345

            TOTAL IN =      559523.6875              TOTAL IN =        1220.3442

          OUT:                                     OUT:
          ----                                     ----
             STORAGE =           0.0000               STORAGE =           0.0000
       CONSTANT HEAD =           0.0000         CONSTANT HEAD =           0.0000
               WELLS =       81500.0000                 WELLS =         500.0000
     HEAD DEP BOUNDS =      478025.8750       HEAD DEP BOUNDS =         720.3509

           TOTAL OUT =      559525.8750             TOTAL OUT =        1220.3508

            IN - OUT =          -2.1875              IN - OUT =      -6.5918E-03

 PERCENT DISCREPANCY =          -0.00     PERCENT DISCREPANCY =          -0.00






         TIME SUMMARY AT END OF TIME STEP   63 IN STRESS PERIOD    4
                    SECONDS     MINUTES      HOURS       DAYS        YEARS
                    -----------------------------------------------------------
   TIME STEP LENGTH  86400.      1440.0      24.000      1.0000     2.73785E-03
 STRESS PERIOD TIME 5.44320E+06  90720.      1512.0      63.000     0.17248    
         TOTAL TIME 2.28096E+07 3.80160E+05  6336.0      264.00     0.72279    
1
 
 SOLVING FOR HEAD 

 OUTPUT CONTROL FOR STRESS PERIOD    4   TIME STEP   64
    SAVE HEAD FOR ALL LAYERS
    SAVE DRAWDOWN FOR ALL LAYERS
    SAVE BUDGET
    PRINT HEAD FOR ALL LAYERS
    PRINT BUDGET
 UBDSV1 SAVING "         STORAGE" ON UNIT  53 AT TIME STEP 64, STRESS PERIOD   4
 UBDSV2 SAVING "   CONSTANT HEAD" ON UNIT  53 AT TIME STEP 64, STRESS PERIOD   4
 UBDSV1 SAVING "FLOW RIGHT FACE " ON UNIT  53 AT TIME STEP 64, STRESS PERIOD   4
 UBDSV1 SAVING "FLOW FRONT FACE " ON UNIT  53 AT TIME STEP 64, STRESS PERIOD   4
 UBDSV1 SAVING "FLOW LOWER FACE " ON UNIT  53 AT TIME STEP 64, STRESS PERIOD   4
1
              HEAD IN LAYER   1 AT END OF TIME STEP  64 IN STRESS PERIOD    4
  ---------------------------------------------------------------------------

            1           2           3           4           5           6           7           8           9          10
 ........................................................................................................................
   1    9.998       9.118       8.202       7.239       6.236       5.194       4.074       2.837       1.472      2.0555E-03
   2    9.998       9.078       8.113       7.096       6.056       5.043       3.973       2.778       1.446      2.0166E-03
   3    9.998       9.004       7.940       6.787       5.625       4.718       3.776       2.673       1.401      1.9498E-03
   4    9.997       8.918       7.713       6.288       4.697       4.193       3.520       2.555       1.354      1.8809E-03
   5    9.997       8.871       7.552       5.720       1.750       3.588       3.339       2.493       1.334      1.8503E-03
   6    9.997       8.925       7.728       6.308       4.719       4.214       3.537       2.568       1.361      1.8907E-03
   7    9.998       9.021       7.973       6.831       5.675       4.766       3.816       2.702       1.416      1.9723E-03
   8    9.998       9.108       8.173       7.177       6.147       5.131       4.046       2.830       1.473      2.0570E-03
   9    9.998       9.170       8.302       7.378       6.394       5.345       4.198       2.922       1.516      2.1215E-03
  10    9.998       9.200       8.365       7.471       6.502       5.444       4.272       2.969       1.539      2.1552E-03
1
              HEAD IN LAYER   2 AT END OF TIME STEP  64 IN STRESS PERIOD    4
  ---------------------------------------------------------------------------

            1           2           3           4           5           6           7           8           9          10
 ........................................................................................................................
   1    9.998       9.113       8.193       7.229       6.223       5.182       4.063       2.828       1.466      4.0318E-03
   2    9.998       9.073       8.105       7.085       6.043       5.031       3.962       2.769       1.440      3.9598E-03
   3    9.998       8.999       7.932       6.776       5.613       4.706       3.765       2.664       1.395      3.8359E-03
   4    9.997       8.913       7.704       6.276       4.686       4.181       3.509       2.547       1.349      3.7077E-03
   5    9.997       8.865       7.542       5.707       2.178       3.581       3.329       2.485       1.328      3.6507E-03
   6    9.997       8.920       7.718       6.295       4.708       4.202       3.527       2.559       1.356      3.7262E-03
   7    9.998       9.016       7.964       6.820       5.662       4.754       3.805       2.694       1.411      3.8780E-03
   8    9.998       9.104       8.165       7.167       6.135       5.119       4.036       2.822       1.467      4.0350E-03
   9    9.998       9.165       8.295       7.369       6.382       5.334       4.187       2.914       1.511      4.1540E-03
  10    9.998       9.196       8.357       7.461       6.491       5.432       4.261       2.961       1.533      4.2162E-03
1
              HEAD IN LAYER   3 AT END OF TIME STEP  64 IN STRESS PERIOD    4
  ---------------------------------------------------------------------------

            1           2           3           4           5           6           7           8           9          10
 ........................................................................................................................
   1    9.998       9.110       8.188       7.221       6.214       5.172       4.054       2.820       1.461      4.3330E-03
   2    9.998       9.069       8.099       7.077       6.034       5.021       3.952       2.761       1.435      4.2559E-03
   3    9.997       8.995       7.926       6.768       5.603       4.696       3.755       2.657       1.390      4.1232E-03
   4    9.997       8.909       7.698       6.267       4.683       4.171       3.500       2.539       1.344      3.9857E-03
   5    9.997       8.861       7.535       5.703       2.545       3.580       3.320       2.477       1.323      3.9248E-03
   6    9.997       8.916       7.712       6.286       4.705       4.193       3.518       2.552       1.351      4.0058E-03
   7    9.998       9.013       7.958       6.812       5.653       4.744       3.796       2.686       1.405      4.1686E-03
   8    9.998       9.101       8.159       7.159       6.126       5.110       4.027       2.814       1.462      4.3370E-03
   9    9.998       9.162       8.290       7.361       6.374       5.325       4.179       2.906       1.505      4.4646E-03
  10    9.998       9.193       8.352       7.454       6.482       5.423       4.252       2.953       1.528      4.5313E-03
1
              HEAD IN LAYER   4 AT END OF TIME STEP  64 IN STRESS PERIOD    4
  ---------------------------------------------------------------------------

            1           2           3           4           5           6           7           8           9          10
 ........................................................................................................................
   1    9.998       9.108       8.185       7.217       6.210       5.167       4.049       2.816       1.458      4.3584E-03
   2    9.998       9.068       8.096       7.073       6.029       5.016       3.948       2.758       1.432      4.2808E-03
   3    9.997       8.994       7.923       6.763       5.598       4.691       3.751       2.653       1.388      4.1472E-03
   4    9.997       8.907       7.694       6.263       4.684       4.167       3.495       2.535       1.341      4.0089E-03
   5    9.997       8.859       7.532       5.703       2.721       3.582       3.316       2.474       1.321      3.9476E-03
   6    9.997       8.915       7.709       6.282       4.706       4.188       3.513       2.548       1.348      4.0292E-03
   7    9.998       9.011       7.955       6.808       5.648       4.739       3.792       2.682       1.403      4.1930E-03
   8    9.998       9.099       8.156       7.155       6.122       5.105       4.022       2.810       1.460      4.3626E-03
   9    9.998       9.161       8.287       7.358       6.369       5.320       4.174       2.903       1.503      4.4911E-03
  10    9.998       9.192       8.350       7.450       6.478       5.419       4.248       2.949       1.525      4.5583E-03

 HEAD WILL BE SAVED ON UNIT   51 AT END OF TIME STEP   64, STRESS PERIOD    4

 DRAWDOWN WILL BE SAVED ON UNIT   52 AT END OF TIME STEP   64, STRESS PERIOD    4
1
  VOLUMETRIC BUDGET FOR ENTIRE MODEL AT END OF TIME STEP   64, STRESS PERIOD   4
  ------------------------------------------------------------------------------

     CUMULATIVE VOLUMES      L**3       RATES FOR THIS TIME STEP      L**3/T
     ------------------                 ------------------------

           IN:                                      IN:
           ---                                      ---
             STORAGE =      501209.5000               STORAGE =         645.8364
       CONSTANT HEAD =           0.0000         CONSTANT HEAD =           0.0000
               WELLS =           0.0000                 WELLS =           0.0000
     HEAD DEP BOUNDS =       59532.4766       HEAD DEP BOUNDS =         572.4183

            TOTAL IN =      560742.0000              TOTAL IN =        1218.2548

          OUT:                                     OUT:
          ----                                     ----
             STORAGE =           0.0000               STORAGE =           0.0000
       CONSTANT HEAD =           0.0000         CONSTANT HEAD =           0.0000
               WELLS =       82000.0000                 WELLS =         500.0000
     HEAD DEP BOUNDS =      478744.1250       HEAD DEP BOUNDS =         718.2612

           TOTAL OUT =      560744.1250             TOTAL OUT =        1218.2612

            IN - OUT =          -2.1250              IN - OUT =      -6.4697E-03

 PERCENT DISCREPANCY =          -0.00     PERCENT DISCREPANCY =          -0.00






         TIME SUMMARY AT END OF TIME STEP   64 IN STRESS PERIOD    4
                    SECONDS     MINUTES      HOURS       DAYS        YEARS
                    -----------------------------------------------------------
   TIME STEP LENGTH  86400.      1440.0      24.000      1.0000     2.73785E-03
 STRESS PERIOD TIME 5.52960E+06  92160.      1536.0      64.000     0.17522    
         TOTAL TIME 2.28960E+07 3.81600E+05  6360.0      265.00     0.72553    
1
 
 SOLVING FOR HEAD 

 OUTPUT CONTROL FOR STRESS PERIOD    4   TIME STEP   65
    SAVE HEAD FOR ALL LAYERS
    SAVE DRAWDOWN FOR ALL LAYERS
    SAVE BUDGET
    PRINT HEAD FOR ALL LAYERS
    PRINT BUDGET
 UBDSV1 SAVING "         STORAGE" ON UNIT  53 AT TIME STEP 65, STRESS PERIOD   4
 UBDSV2 SAVING "   CONSTANT HEAD" ON UNIT  53 AT TIME STEP 65, STRESS PERIOD   4
 UBDSV1 SAVING "FLOW RIGHT FACE " ON UNIT  53 AT TIME STEP 65, STRESS PERIOD   4
 UBDSV1 SAVING "FLOW FRONT FACE " ON UNIT  53 AT TIME STEP 65, STRESS PERIOD   4
 UBDSV1 SAVING "FLOW LOWER FACE " ON UNIT  53 AT TIME STEP 65, STRESS PERIOD   4
1
              HEAD IN LAYER   1 AT END OF TIME STEP  65 IN STRESS PERIOD    4
  ---------------------------------------------------------------------------

            1           2           3           4           5           6           7           8           9          10
 ........................................................................................................................
   1    9.998       9.114       8.195       7.230       6.225       5.183       4.065       2.829       1.468      2.0492E-03
   2    9.998       9.074       8.107       7.087       6.045       5.032       3.963       2.771       1.442      2.0104E-03
   3    9.998       9.000       7.934       6.778       5.614       4.707       3.766       2.666       1.397      1.9436E-03
   4    9.997       8.914       7.707       6.279       4.686       4.181       3.509       2.547       1.350      1.8746E-03
   5    9.997       8.867       7.545       5.711       1.738       3.577       3.329       2.486       1.329      1.8441E-03
   6    9.997       8.922       7.721       6.298       4.708       4.203       3.527       2.560       1.357      1.8847E-03
   7    9.998       9.017       7.966       6.822       5.664       4.755       3.806       2.695       1.412      1.9663E-03
   8    9.998       9.105       8.166       7.168       6.137       5.121       4.037       2.823       1.469      2.0511E-03
   9    9.998       9.166       8.296       7.370       6.384       5.335       4.189       2.915       1.512      2.1157E-03
  10    9.998       9.197       8.359       7.462       6.492       5.434       4.263       2.962       1.535      2.1495E-03
1
              HEAD IN LAYER   2 AT END OF TIME STEP  65 IN STRESS PERIOD    4
  ---------------------------------------------------------------------------

            1           2           3           4           5           6           7           8           9          10
 ........................................................................................................................
   1    9.998       9.110       8.187       7.220       6.213       5.171       4.053       2.820       1.462      4.0203E-03
   2    9.998       9.069       8.098       7.076       6.033       5.020       3.952       2.762       1.436      3.9483E-03
   3    9.998       8.995       7.925       6.767       5.602       4.695       3.755       2.657       1.391      3.8243E-03
   4    9.997       8.909       7.698       6.267       4.675       4.170       3.499       2.539       1.345      3.6960E-03
   5    9.997       8.862       7.535       5.697       2.167       3.569       3.319       2.477       1.324      3.6391E-03
   6    9.997       8.917       7.712       6.286       4.697       4.191       3.517       2.552       1.351      3.7148E-03
   7    9.998       9.012       7.958       6.811       5.652       4.743       3.796       2.686       1.407      3.8668E-03
   8    9.998       9.101       8.159       7.158       6.125       5.109       4.026       2.815       1.464      4.0241E-03
   9    9.998       9.162       8.289       7.360       6.373       5.324       4.178       2.907       1.507      4.1433E-03
  10    9.998       9.193       8.351       7.453       6.481       5.422       4.252       2.954       1.529      4.2057E-03
1
              HEAD IN LAYER   3 AT END OF TIME STEP  65 IN STRESS PERIOD    4
  ---------------------------------------------------------------------------

            1           2           3           4           5           6           7           8           9          10
 ........................................................................................................................
   1    9.998       9.106       8.181       7.212       6.204       5.162       4.044       2.812       1.457      4.3208E-03
   2    9.998       9.066       8.093       7.068       6.023       5.010       3.942       2.754       1.431      4.2436E-03
   3    9.997       8.992       7.919       6.758       5.592       4.685       3.745       2.649       1.386      4.1108E-03
   4    9.997       8.905       7.691       6.258       4.672       4.160       3.490       2.531       1.340      3.9732E-03
   5    9.997       8.858       7.528       5.694       2.534       3.569       3.310       2.470       1.319      3.9124E-03
   6    9.997       8.913       7.705       6.277       4.695       4.182       3.508       2.544       1.346      3.9935E-03
   7    9.998       9.009       7.952       6.803       5.643       4.734       3.787       2.679       1.401      4.1566E-03
   8    9.998       9.098       8.153       7.150       6.116       5.100       4.017       2.807       1.458      4.3253E-03
   9    9.998       9.159       8.284       7.353       6.364       5.315       4.170       2.899       1.501      4.4532E-03
  10    9.998       9.190       8.346       7.446       6.473       5.413       4.244       2.946       1.524      4.5201E-03
1
              HEAD IN LAYER   4 AT END OF TIME STEP  65 IN STRESS PERIOD    4
  ---------------------------------------------------------------------------

            1           2           3           4           5           6           7           8           9          10
 ........................................................................................................................
   1    9.998       9.105       8.178       7.208       6.199       5.157       4.039       2.808       1.454      4.3461E-03
   2    9.998       9.064       8.090       7.064       6.019       5.005       3.938       2.750       1.428      4.2684E-03
   3    9.997       8.990       7.916       6.754       5.587       4.680       3.741       2.645       1.383      4.1347E-03
   4    9.997       8.904       7.688       6.253       4.673       4.156       3.485       2.527       1.337      3.9964E-03
   5    9.997       8.856       7.525       5.693       2.709       3.571       3.306       2.466       1.317      3.9352E-03
   6    9.997       8.911       7.702       6.273       4.695       4.177       3.503       2.541       1.344      4.0169E-03
   7    9.998       9.008       7.949       6.799       5.638       4.729       3.782       2.675       1.399      4.1810E-03
   8    9.998       9.096       8.150       7.147       6.112       5.095       4.013       2.803       1.456      4.3509E-03
   9    9.998       9.158       8.281       7.349       6.360       5.310       4.165       2.896       1.499      4.4796E-03
  10    9.998       9.188       8.344       7.442       6.469       5.409       4.239       2.943       1.521      4.5471E-03

 HEAD WILL BE SAVED ON UNIT   51 AT END OF TIME STEP   65, STRESS PERIOD    4

 DRAWDOWN WILL BE SAVED ON UNIT   52 AT END OF TIME STEP   65, STRESS PERIOD    4
1
  VOLUMETRIC BUDGET FOR ENTIRE MODEL AT END OF TIME STEP   65, STRESS PERIOD   4
  ------------------------------------------------------------------------------

     CUMULATIVE VOLUMES      L**3       RATES FOR THIS TIME STEP      L**3/T
     ------------------                 ------------------------

           IN:                                      IN:
           ---                                      ---
             STORAGE =      501851.2812               STORAGE =         641.7953
       CONSTANT HEAD =           0.0000         CONSTANT HEAD =           0.0000
               WELLS =           0.0000                 WELLS =           0.0000
     HEAD DEP BOUNDS =       60106.8672       HEAD DEP BOUNDS =         574.3902

            TOTAL IN =      561958.1250              TOTAL IN =        1216.1855

          OUT:                                     OUT:
          ----                                     ----
             STORAGE =           0.0000               STORAGE =           0.0000
       CONSTANT HEAD =           0.0000         CONSTANT HEAD =           0.0000
               WELLS =       82500.0000                 WELLS =         500.0000
     HEAD DEP BOUNDS =      479460.3125       HEAD DEP BOUNDS =         716.1882

           TOTAL OUT =      561960.3125             TOTAL OUT =        1216.1882

            IN - OUT =          -2.1875              IN - OUT =      -2.6855E-03

 PERCENT DISCREPANCY =          -0.00     PERCENT DISCREPANCY =          -0.00






         TIME SUMMARY AT END OF TIME STEP   65 IN STRESS PERIOD    4
                    SECONDS     MINUTES      HOURS       DAYS        YEARS
                    -----------------------------------------------------------
   TIME STEP LENGTH  86400.      1440.0      24.000      1.0000     2.73785E-03
 STRESS PERIOD TIME 5.61600E+06  93600.      1560.0      65.000     0.17796    
         TOTAL TIME 2.29824E+07 3.83040E+05  6384.0      266.00     0.72827    
1
 
 SOLVING FOR HEAD 

 OUTPUT CONTROL FOR STRESS PERIOD    4   TIME STEP   66
    SAVE HEAD FOR ALL LAYERS
    SAVE DRAWDOWN FOR ALL LAYERS
    SAVE BUDGET
    PRINT HEAD FOR ALL LAYERS
    PRINT BUDGET
 UBDSV1 SAVING "         STORAGE" ON UNIT  53 AT TIME STEP 66, STRESS PERIOD   4
 UBDSV2 SAVING "   CONSTANT HEAD" ON UNIT  53 AT TIME STEP 66, STRESS PERIOD   4
 UBDSV1 SAVING "FLOW RIGHT FACE " ON UNIT  53 AT TIME STEP 66, STRESS PERIOD   4
 UBDSV1 SAVING "FLOW FRONT FACE " ON UNIT  53 AT TIME STEP 66, STRESS PERIOD   4
 UBDSV1 SAVING "FLOW LOWER FACE " ON UNIT  53 AT TIME STEP 66, STRESS PERIOD   4
1
              HEAD IN LAYER   1 AT END OF TIME STEP  66 IN STRESS PERIOD    4
  ---------------------------------------------------------------------------

            1           2           3           4           5           6           7           8           9          10
 ........................................................................................................................
   1    9.998       9.111       8.188       7.221       6.215       5.173       4.055       2.822       1.464      2.0432E-03
   2    9.998       9.071       8.100       7.078       6.034       5.021       3.953       2.763       1.438      2.0043E-03
   3    9.998       8.997       7.927       6.769       5.604       4.696       3.756       2.658       1.393      1.9373E-03
   4    9.997       8.911       7.700       6.270       4.675       4.170       3.499       2.540       1.346      1.8684E-03
   5    9.997       8.864       7.539       5.702       1.726       3.565       3.319       2.478       1.325      1.8379E-03
   6    9.997       8.918       7.714       6.289       4.697       4.192       3.517       2.553       1.353      1.8784E-03
   7    9.998       9.014       7.960       6.813       5.654       4.744       3.797       2.687       1.408      1.9603E-03
   8    9.998       9.102       8.160       7.160       6.127       5.111       4.028       2.816       1.465      2.0453E-03
   9    9.998       9.163       8.290       7.362       6.374       5.325       4.180       2.908       1.508      2.1098E-03
  10    9.998       9.194       8.353       7.454       6.483       5.424       4.254       2.955       1.531      2.1437E-03
1
              HEAD IN LAYER   2 AT END OF TIME STEP  66 IN STRESS PERIOD    4
  ---------------------------------------------------------------------------

            1           2           3           4           5           6           7           8           9          10
 ........................................................................................................................
   1    9.998       9.106       8.180       7.211       6.203       5.161       4.044       2.813       1.458      4.0089E-03
   2    9.998       9.066       8.092       7.067       6.022       5.009       3.942       2.754       1.432      3.9368E-03
   3    9.997       8.992       7.919       6.758       5.591       4.684       3.745       2.649       1.387      3.8127E-03
   4    9.997       8.906       7.691       6.258       4.664       4.159       3.489       2.531       1.340      3.6844E-03
   5    9.997       8.858       7.529       5.688       2.155       3.558       3.309       2.469       1.320      3.6275E-03
   6    9.997       8.913       7.705       6.277       4.686       4.180       3.507       2.544       1.347      3.7033E-03
   7    9.998       9.009       7.952       6.803       5.642       4.733       3.786       2.679       1.403      3.8556E-03
   8    9.998       9.097       8.152       7.150       6.115       5.099       4.017       2.807       1.460      4.0132E-03
   9    9.998       9.159       8.283       7.352       6.363       5.314       4.169       2.900       1.503      4.1327E-03
  10    9.998       9.190       8.345       7.444       6.472       5.412       4.243       2.947       1.525      4.1952E-03
1
              HEAD IN LAYER   3 AT END OF TIME STEP  66 IN STRESS PERIOD    4
  ---------------------------------------------------------------------------

            1           2           3           4           5           6           7           8           9          10
 ........................................................................................................................
   1    9.998       9.103       8.175       7.203       6.193       5.151       4.034       2.805       1.453      4.3087E-03
   2    9.998       9.063       8.086       7.059       6.013       4.999       3.933       2.747       1.427      4.2314E-03
   3    9.997       8.988       7.913       6.749       5.581       4.674       3.736       2.642       1.382      4.0984E-03
   4    9.997       8.902       7.684       6.249       4.662       4.149       3.480       2.524       1.335      3.9609E-03
   5    9.997       8.854       7.522       5.684       2.522       3.558       3.300       2.462       1.315      3.9000E-03
   6    9.997       8.910       7.699       6.268       4.684       4.171       3.498       2.537       1.342      3.9814E-03
   7    9.998       9.006       7.946       6.794       5.632       4.723       3.777       2.671       1.397      4.1447E-03
   8    9.998       9.094       8.147       7.142       6.106       5.090       4.008       2.800       1.454      4.3138E-03
   9    9.998       9.156       8.278       7.345       6.355       5.305       4.161       2.892       1.498      4.4419E-03
  10    9.998       9.187       8.340       7.437       6.463       5.404       4.235       2.940       1.520      4.5090E-03
1
              HEAD IN LAYER   4 AT END OF TIME STEP  66 IN STRESS PERIOD    4
  ---------------------------------------------------------------------------

            1           2           3           4           5           6           7           8           9          10
 ........................................................................................................................
   1    9.998       9.101       8.172       7.199       6.189       5.146       4.030       2.801       1.450      4.3339E-03
   2    9.998       9.061       8.083       7.055       6.008       4.994       3.928       2.743       1.424      4.2562E-03
   3    9.997       8.987       7.909       6.745       5.577       4.669       3.731       2.638       1.379      4.1224E-03
   4    9.997       8.900       7.681       6.244       4.662       4.145       3.475       2.520       1.333      3.9840E-03
   5    9.997       8.853       7.518       5.684       2.698       3.560       3.296       2.458       1.312      3.9228E-03
   6    9.997       8.908       7.696       6.264       4.685       4.166       3.494       2.533       1.340      4.0047E-03
   7    9.998       9.004       7.943       6.790       5.628       4.718       3.773       2.668       1.395      4.1691E-03
   8    9.998       9.093       8.144       7.138       6.102       5.085       4.004       2.796       1.452      4.3393E-03
   9    9.998       9.155       8.275       7.341       6.350       5.300       4.156       2.889       1.495      4.4683E-03
  10    9.998       9.185       8.338       7.434       6.459       5.399       4.230       2.936       1.518      4.5359E-03

 HEAD WILL BE SAVED ON UNIT   51 AT END OF TIME STEP   66, STRESS PERIOD    4

 DRAWDOWN WILL BE SAVED ON UNIT   52 AT END OF TIME STEP   66, STRESS PERIOD    4
1
  VOLUMETRIC BUDGET FOR ENTIRE MODEL AT END OF TIME STEP   66, STRESS PERIOD   4
  ------------------------------------------------------------------------------

     CUMULATIVE VOLUMES      L**3       RATES FOR THIS TIME STEP      L**3/T
     ------------------                 ------------------------

           IN:                                      IN:
           ---                                      ---
             STORAGE =      502489.0625               STORAGE =         637.7787
       CONSTANT HEAD =           0.0000         CONSTANT HEAD =           0.0000
               WELLS =           0.0000                 WELLS =           0.0000
     HEAD DEP BOUNDS =       60683.2148       HEAD DEP BOUNDS =         576.3461

            TOTAL IN =      563172.2500              TOTAL IN =        1214.1248

          OUT:                                     OUT:
          ----                                     ----
             STORAGE =           0.0000               STORAGE =           0.0000
       CONSTANT HEAD =           0.0000         CONSTANT HEAD =           0.0000
               WELLS =       83000.0000                 WELLS =         500.0000
     HEAD DEP BOUNDS =      480174.4375       HEAD DEP BOUNDS =         714.1280

           TOTAL OUT =      563174.4375             TOTAL OUT =        1214.1279

            IN - OUT =          -2.1875              IN - OUT =      -3.1738E-03

 PERCENT DISCREPANCY =          -0.00     PERCENT DISCREPANCY =          -0.00






         TIME SUMMARY AT END OF TIME STEP   66 IN STRESS PERIOD    4
                    SECONDS     MINUTES      HOURS       DAYS        YEARS
                    -----------------------------------------------------------
   TIME STEP LENGTH  86400.      1440.0      24.000      1.0000     2.73785E-03
 STRESS PERIOD TIME 5.70240E+06  95040.      1584.0      66.000     0.18070    
         TOTAL TIME 2.30688E+07 3.84480E+05  6408.0      267.00     0.73101    
1
 
 SOLVING FOR HEAD 

 OUTPUT CONTROL FOR STRESS PERIOD    4   TIME STEP   67
    SAVE HEAD FOR ALL LAYERS
    SAVE DRAWDOWN FOR ALL LAYERS
    SAVE BUDGET
    PRINT HEAD FOR ALL LAYERS
    PRINT BUDGET
 UBDSV1 SAVING "         STORAGE" ON UNIT  53 AT TIME STEP 67, STRESS PERIOD   4
 UBDSV2 SAVING "   CONSTANT HEAD" ON UNIT  53 AT TIME STEP 67, STRESS PERIOD   4
 UBDSV1 SAVING "FLOW RIGHT FACE " ON UNIT  53 AT TIME STEP 67, STRESS PERIOD   4
 UBDSV1 SAVING "FLOW FRONT FACE " ON UNIT  53 AT TIME STEP 67, STRESS PERIOD   4
 UBDSV1 SAVING "FLOW LOWER FACE " ON UNIT  53 AT TIME STEP 67, STRESS PERIOD   4
1
              HEAD IN LAYER   1 AT END OF TIME STEP  67 IN STRESS PERIOD    4
  ---------------------------------------------------------------------------

            1           2           3           4           5           6           7           8           9          10
 ........................................................................................................................
   1    9.998       9.107       8.182       7.212       6.204       5.162       4.045       2.814       1.460      2.0370E-03
   2    9.998       9.067       8.094       7.069       6.024       5.010       3.943       2.756       1.434      1.9981E-03
   3    9.998       8.993       7.921       6.760       5.593       4.685       3.746       2.650       1.388      1.9310E-03
   4    9.997       8.907       7.693       6.260       4.664       4.159       3.489       2.532       1.342      1.8621E-03
   5    9.997       8.860       7.532       5.692       1.715       3.554       3.309       2.470       1.321      1.8316E-03
   6    9.997       8.915       7.708       6.280       4.686       4.181       3.508       2.545       1.349      1.8723E-03
   7    9.998       9.011       7.954       6.805       5.644       4.734       3.787       2.680       1.404      1.9543E-03
   8    9.998       9.099       8.154       7.151       6.117       5.100       4.018       2.809       1.461      2.0394E-03
   9    9.998       9.160       8.284       7.354       6.365       5.315       4.171       2.901       1.505      2.1040E-03
  10    9.998       9.191       8.347       7.446       6.473       5.414       4.245       2.949       1.527      2.1380E-03
1
              HEAD IN LAYER   2 AT END OF TIME STEP  67 IN STRESS PERIOD    4
  ---------------------------------------------------------------------------

            1           2           3           4           5           6           7           8           9          10
 ........................................................................................................................
   1    9.998       9.103       8.174       7.202       6.192       5.150       4.034       2.805       1.454      3.9976E-03
   2    9.998       9.063       8.085       7.058       6.012       4.998       3.932       2.747       1.428      3.9255E-03
   3    9.997       8.988       7.912       6.749       5.580       4.673       3.735       2.642       1.383      3.8013E-03
   4    9.997       8.902       7.684       6.248       4.653       4.147       3.479       2.524       1.336      3.6728E-03
   5    9.997       8.855       7.522       5.679       2.143       3.547       3.299       2.462       1.316      3.6160E-03
   6    9.997       8.910       7.699       6.268       4.676       4.169       3.497       2.537       1.343      3.6920E-03
   7    9.998       9.006       7.945       6.794       5.631       4.722       3.777       2.672       1.399      3.8445E-03
   8    9.998       9.094       8.146       7.141       6.105       5.089       4.008       2.800       1.456      4.0024E-03
   9    9.998       9.156       8.277       7.344       6.353       5.304       4.160       2.893       1.499      4.1221E-03
  10    9.998       9.186       8.340       7.436       6.462       5.403       4.234       2.940       1.522      4.1848E-03
1
              HEAD IN LAYER   3 AT END OF TIME STEP  67 IN STRESS PERIOD    4
  ---------------------------------------------------------------------------

            1           2           3           4           5           6           7           8           9          10
 ........................................................................................................................
   1    9.998       9.100       8.168       7.194       6.183       5.140       4.025       2.797       1.449      4.2966E-03
   2    9.998       9.059       8.080       7.050       6.002       4.989       3.923       2.739       1.423      4.2193E-03
   3    9.997       8.985       7.906       6.740       5.571       4.663       3.726       2.634       1.378      4.0862E-03
   4    9.997       8.899       7.678       6.239       4.651       4.138       3.470       2.516       1.331      3.9486E-03
   5    9.997       8.851       7.515       5.675       2.511       3.547       3.290       2.455       1.311      3.8878E-03
   6    9.997       8.906       7.692       6.259       4.673       4.160       3.488       2.529       1.338      3.9693E-03
   7    9.998       9.003       7.939       6.786       5.622       4.713       3.768       2.664       1.393      4.1329E-03
   8    9.998       9.091       8.141       7.134       6.097       5.080       3.999       2.793       1.451      4.3023E-03
   9    9.998       9.153       8.272       7.337       6.345       5.295       4.152       2.886       1.494      4.4306E-03
  10    9.998       9.184       8.334       7.429       6.454       5.394       4.226       2.933       1.517      4.4979E-03
1
              HEAD IN LAYER   4 AT END OF TIME STEP  67 IN STRESS PERIOD    4
  ---------------------------------------------------------------------------

            1           2           3           4           5           6           7           8           9          10
 ........................................................................................................................
   1    9.998       9.098       8.166       7.190       6.179       5.135       4.020       2.794       1.446      4.3218E-03
   2    9.998       9.058       8.077       7.046       5.998       4.984       3.918       2.735       1.420      4.2440E-03
   3    9.997       8.983       7.903       6.736       5.566       4.658       3.721       2.630       1.375      4.1101E-03
   4    9.997       8.897       7.675       6.235       4.651       4.134       3.465       2.512       1.329      3.9716E-03
   5    9.997       8.849       7.512       5.675       2.687       3.549       3.286       2.451       1.308      3.9105E-03
   6    9.997       8.905       7.689       6.255       4.674       4.156       3.484       2.526       1.336      3.9926E-03
   7    9.998       9.001       7.937       6.782       5.618       4.708       3.763       2.660       1.391      4.1572E-03
   8    9.998       9.090       8.138       7.130       6.092       5.075       3.995       2.789       1.448      4.3278E-03
   9    9.998       9.152       8.269       7.333       6.341       5.290       4.147       2.882       1.491      4.4570E-03
  10    9.998       9.182       8.332       7.426       6.450       5.389       4.222       2.929       1.514      4.5248E-03

 HEAD WILL BE SAVED ON UNIT   51 AT END OF TIME STEP   67, STRESS PERIOD    4

 DRAWDOWN WILL BE SAVED ON UNIT   52 AT END OF TIME STEP   67, STRESS PERIOD    4
1
  VOLUMETRIC BUDGET FOR ENTIRE MODEL AT END OF TIME STEP   67, STRESS PERIOD   4
  ------------------------------------------------------------------------------

     CUMULATIVE VOLUMES      L**3       RATES FOR THIS TIME STEP      L**3/T
     ------------------                 ------------------------

           IN:                                      IN:
           ---                                      ---
             STORAGE =      503122.8438               STORAGE =         633.7842
       CONSTANT HEAD =           0.0000         CONSTANT HEAD =           0.0000
               WELLS =           0.0000                 WELLS =           0.0000
     HEAD DEP BOUNDS =       61261.5117       HEAD DEP BOUNDS =         578.2980

            TOTAL IN =      564384.3750              TOTAL IN =        1212.0823

          OUT:                                     OUT:
          ----                                     ----
             STORAGE =           0.0000               STORAGE =           0.0000
       CONSTANT HEAD =           0.0000         CONSTANT HEAD =           0.0000
               WELLS =       83500.0000                 WELLS =         500.0000
     HEAD DEP BOUNDS =      480886.5312       HEAD DEP BOUNDS =         712.0785

           TOTAL OUT =      564386.5000             TOTAL OUT =        1212.0785

            IN - OUT =          -2.1250              IN - OUT =       3.7842E-03

 PERCENT DISCREPANCY =          -0.00     PERCENT DISCREPANCY =           0.00






         TIME SUMMARY AT END OF TIME STEP   67 IN STRESS PERIOD    4
                    SECONDS     MINUTES      HOURS       DAYS        YEARS
                    -----------------------------------------------------------
   TIME STEP LENGTH  86400.      1440.0      24.000      1.0000     2.73785E-03
 STRESS PERIOD TIME 5.78880E+06  96480.      1608.0      67.000     0.18344    
         TOTAL TIME 2.31552E+07 3.85920E+05  6432.0      268.00     0.73374    
1
 
 SOLVING FOR HEAD 

 OUTPUT CONTROL FOR STRESS PERIOD    4   TIME STEP   68
    SAVE HEAD FOR ALL LAYERS
    SAVE DRAWDOWN FOR ALL LAYERS
    SAVE BUDGET
    PRINT HEAD FOR ALL LAYERS
    PRINT BUDGET
 UBDSV1 SAVING "         STORAGE" ON UNIT  53 AT TIME STEP 68, STRESS PERIOD   4
 UBDSV2 SAVING "   CONSTANT HEAD" ON UNIT  53 AT TIME STEP 68, STRESS PERIOD   4
 UBDSV1 SAVING "FLOW RIGHT FACE " ON UNIT  53 AT TIME STEP 68, STRESS PERIOD   4
 UBDSV1 SAVING "FLOW FRONT FACE " ON UNIT  53 AT TIME STEP 68, STRESS PERIOD   4
 UBDSV1 SAVING "FLOW LOWER FACE " ON UNIT  53 AT TIME STEP 68, STRESS PERIOD   4
1
              HEAD IN LAYER   1 AT END OF TIME STEP  68 IN STRESS PERIOD    4
  ---------------------------------------------------------------------------

            1           2           3           4           5           6           7           8           9          10
 ........................................................................................................................
   1    9.998       9.104       8.175       7.203       6.194       5.151       4.035       2.807       1.456      2.0309E-03
   2    9.998       9.064       8.087       7.060       6.013       5.000       3.933       2.748       1.429      1.9919E-03
   3    9.998       8.990       7.914       6.751       5.582       4.674       3.736       2.643       1.384      1.9250E-03
   4    9.997       8.904       7.687       6.251       4.653       4.148       3.479       2.524       1.338      1.8559E-03
   5    9.997       8.857       7.525       5.683       1.703       3.543       3.299       2.463       1.317      1.8255E-03
   6    9.997       8.912       7.701       6.271       4.676       4.170       3.498       2.538       1.345      1.8662E-03
   7    9.998       9.007       7.947       6.796       5.633       4.723       3.778       2.673       1.400      1.9482E-03
   8    9.998       9.096       8.148       7.143       6.107       5.090       4.009       2.802       1.457      2.0336E-03
   9    9.998       9.157       8.278       7.345       6.355       5.305       4.162       2.895       1.501      2.0983E-03
  10    9.998       9.188       8.341       7.438       6.464       5.404       4.236       2.942       1.524      2.1324E-03
1
              HEAD IN LAYER   2 AT END OF TIME STEP  68 IN STRESS PERIOD    4
  ---------------------------------------------------------------------------

            1           2           3           4           5           6           7           8           9          10
 ........................................................................................................................
   1    9.998       9.099       8.168       7.193       6.182       5.139       4.024       2.798       1.450      3.9863E-03
   2    9.998       9.059       8.079       7.049       6.001       4.988       3.922       2.739       1.424      3.9141E-03
   3    9.997       8.985       7.906       6.740       5.570       4.662       3.725       2.634       1.379      3.7899E-03
   4    9.997       8.899       7.678       6.239       4.642       4.136       3.469       2.516       1.332      3.6614E-03
   5    9.997       8.851       7.516       5.670       2.132       3.536       3.289       2.454       1.312      3.6046E-03
   6    9.997       8.907       7.692       6.259       4.665       4.158       3.487       2.529       1.339      3.6807E-03
   7    9.998       9.003       7.939       6.785       5.621       4.712       3.767       2.664       1.395      3.8335E-03
   8    9.998       9.091       8.140       7.133       6.096       5.079       3.999       2.793       1.452      3.9917E-03
   9    9.998       9.153       8.271       7.336       6.344       5.294       4.151       2.886       1.495      4.1116E-03
  10    9.998       9.183       8.334       7.428       6.453       5.393       4.226       2.933       1.518      4.1745E-03
1
              HEAD IN LAYER   3 AT END OF TIME STEP  68 IN STRESS PERIOD    4
  ---------------------------------------------------------------------------

            1           2           3           4           5           6           7           8           9          10
 ........................................................................................................................
   1    9.998       9.096       8.162       7.185       6.173       5.130       4.015       2.790       1.445      4.2846E-03
   2    9.998       9.056       8.073       7.041       5.992       4.978       3.913       2.732       1.419      4.2072E-03
   3    9.997       8.982       7.900       6.731       5.560       4.652       3.716       2.627       1.374      4.0740E-03
   4    9.997       8.895       7.671       6.230       4.640       4.127       3.460       2.509       1.327      3.9363E-03
   5    9.997       8.848       7.509       5.666       2.499       3.536       3.280       2.447       1.307      3.8756E-03
   6    9.997       8.903       7.686       6.250       4.663       4.149       3.479       2.522       1.334      3.9573E-03
   7    9.998       8.999       7.933       6.777       5.612       4.702       3.758       2.657       1.390      4.1211E-03
   8    9.998       9.088       8.135       7.125       6.087       5.070       3.990       2.786       1.447      4.2908E-03
   9    9.998       9.150       8.266       7.328       6.335       5.285       4.143       2.879       1.490      4.4195E-03
  10    9.998       9.181       8.329       7.421       6.445       5.384       4.217       2.926       1.513      4.4869E-03
1
              HEAD IN LAYER   4 AT END OF TIME STEP  68 IN STRESS PERIOD    4
  ---------------------------------------------------------------------------

            1           2           3           4           5           6           7           8           9          10
 ........................................................................................................................
   1    9.998       9.095       8.159       7.181       6.168       5.125       4.011       2.786       1.442      4.3098E-03
   2    9.998       9.054       8.070       7.037       5.987       4.973       3.909       2.728       1.416      4.2319E-03
   3    9.997       8.980       7.896       6.727       5.556       4.647       3.711       2.623       1.371      4.0979E-03
   4    9.997       8.893       7.668       6.226       4.641       4.123       3.456       2.505       1.325      3.9593E-03
   5    9.997       8.846       7.505       5.666       2.675       3.538       3.276       2.443       1.304      3.8983E-03
   6    9.997       8.901       7.683       6.246       4.663       4.145       3.474       2.518       1.332      3.9805E-03
   7    9.998       8.998       7.930       6.773       5.607       4.698       3.754       2.653       1.387      4.1455E-03
   8    9.998       9.087       8.132       7.121       6.082       5.065       3.986       2.782       1.444      4.3163E-03
   9    9.998       9.148       8.263       7.325       6.331       5.281       4.139       2.875       1.488      4.4458E-03
  10    9.998       9.179       8.326       7.418       6.441       5.380       4.213       2.922       1.510      4.5137E-03

 HEAD WILL BE SAVED ON UNIT   51 AT END OF TIME STEP   68, STRESS PERIOD    4

 DRAWDOWN WILL BE SAVED ON UNIT   52 AT END OF TIME STEP   68, STRESS PERIOD    4
1
  VOLUMETRIC BUDGET FOR ENTIRE MODEL AT END OF TIME STEP   68, STRESS PERIOD   4
  ------------------------------------------------------------------------------

     CUMULATIVE VOLUMES      L**3       RATES FOR THIS TIME STEP      L**3/T
     ------------------                 ------------------------

           IN:                                      IN:
           ---                                      ---
             STORAGE =      503752.6562               STORAGE =         629.8210
       CONSTANT HEAD =           0.0000         CONSTANT HEAD =           0.0000
               WELLS =           0.0000                 WELLS =           0.0000
     HEAD DEP BOUNDS =       61841.7422       HEAD DEP BOUNDS =         580.2301

            TOTAL IN =      565594.3750              TOTAL IN =        1210.0511

          OUT:                                     OUT:
          ----                                     ----
             STORAGE =           0.0000               STORAGE =           0.0000
       CONSTANT HEAD =           0.0000         CONSTANT HEAD =           0.0000
               WELLS =       84000.0000                 WELLS =         500.0000
     HEAD DEP BOUNDS =      481596.5625       HEAD DEP BOUNDS =         710.0435

           TOTAL OUT =      565596.5625             TOTAL OUT =        1210.0435

            IN - OUT =          -2.1875              IN - OUT =       7.6904E-03

 PERCENT DISCREPANCY =          -0.00     PERCENT DISCREPANCY =           0.00






         TIME SUMMARY AT END OF TIME STEP   68 IN STRESS PERIOD    4
                    SECONDS     MINUTES      HOURS       DAYS        YEARS
                    -----------------------------------------------------------
   TIME STEP LENGTH  86400.      1440.0      24.000      1.0000     2.73785E-03
 STRESS PERIOD TIME 5.87520E+06  97920.      1632.0      68.000     0.18617    
         TOTAL TIME 2.32416E+07 3.87360E+05  6456.0      269.00     0.73648    
1
 
 SOLVING FOR HEAD 

 OUTPUT CONTROL FOR STRESS PERIOD    4   TIME STEP   69
    SAVE HEAD FOR ALL LAYERS
    SAVE DRAWDOWN FOR ALL LAYERS
    SAVE BUDGET
    PRINT HEAD FOR ALL LAYERS
    PRINT BUDGET
 UBDSV1 SAVING "         STORAGE" ON UNIT  53 AT TIME STEP 69, STRESS PERIOD   4
 UBDSV2 SAVING "   CONSTANT HEAD" ON UNIT  53 AT TIME STEP 69, STRESS PERIOD   4
 UBDSV1 SAVING "FLOW RIGHT FACE " ON UNIT  53 AT TIME STEP 69, STRESS PERIOD   4
 UBDSV1 SAVING "FLOW FRONT FACE " ON UNIT  53 AT TIME STEP 69, STRESS PERIOD   4
 UBDSV1 SAVING "FLOW LOWER FACE " ON UNIT  53 AT TIME STEP 69, STRESS PERIOD   4
1
              HEAD IN LAYER   1 AT END OF TIME STEP  69 IN STRESS PERIOD    4
  ---------------------------------------------------------------------------

            1           2           3           4           5           6           7           8           9          10
 ........................................................................................................................
   1    9.998       9.101       8.169       7.194       6.183       5.141       4.026       2.799       1.452      2.0249E-03
   2    9.998       9.060       8.081       7.051       6.003       4.989       3.924       2.741       1.425      1.9858E-03
   3    9.998       8.987       7.907       6.742       5.572       4.663       3.726       2.635       1.380      1.9189E-03
   4    9.997       8.901       7.680       6.242       4.642       4.137       3.470       2.517       1.333      1.8497E-03
   5    9.997       8.853       7.519       5.674       1.692       3.532       3.289       2.455       1.313      1.8193E-03
   6    9.997       8.908       7.695       6.262       4.665       4.159       3.488       2.530       1.340      1.8602E-03
   7    9.998       9.004       7.941       6.787       5.623       4.713       3.768       2.666       1.396      1.9423E-03
   8    9.998       9.092       8.142       7.134       6.097       5.080       4.000       2.795       1.453      2.0277E-03
   9    9.998       9.154       8.272       7.337       6.345       5.296       4.153       2.888       1.497      2.0926E-03
  10    9.998       9.184       8.335       7.430       6.454       5.395       4.227       2.935       1.520      2.1269E-03
1
              HEAD IN LAYER   2 AT END OF TIME STEP  69 IN STRESS PERIOD    4
  ---------------------------------------------------------------------------

            1           2           3           4           5           6           7           8           9          10
 ........................................................................................................................
   1    9.998       9.096       8.161       7.184       6.172       5.129       4.015       2.790       1.446      3.9752E-03
   2    9.998       9.056       8.073       7.040       5.991       4.977       3.913       2.732       1.420      3.9029E-03
   3    9.997       8.982       7.899       6.731       5.559       4.651       3.715       2.627       1.375      3.7786E-03
   4    9.997       8.895       7.671       6.230       4.632       4.126       3.459       2.509       1.328      3.6500E-03
   5    9.997       8.848       7.509       5.661       2.120       3.525       3.279       2.447       1.307      3.5932E-03
   6    9.997       8.903       7.686       6.250       4.654       4.148       3.478       2.522       1.335      3.6695E-03
   7    9.998       8.999       7.933       6.776       5.611       4.701       3.758       2.657       1.391      3.8226E-03
   8    9.998       9.088       8.134       7.124       6.086       5.069       3.990       2.786       1.448      3.9810E-03
   9    9.998       9.150       8.265       7.327       6.334       5.284       4.143       2.879       1.491      4.1012E-03
  10    9.998       9.180       8.328       7.420       6.444       5.383       4.217       2.927       1.514      4.1642E-03
1
              HEAD IN LAYER   3 AT END OF TIME STEP  69 IN STRESS PERIOD    4
  ---------------------------------------------------------------------------

            1           2           3           4           5           6           7           8           9          10
 ........................................................................................................................
   1    9.998       9.093       8.156       7.176       6.163       5.119       4.006       2.783       1.441      4.2727E-03
   2    9.998       9.053       8.067       7.033       5.982       4.967       3.904       2.724       1.415      4.1952E-03
   3    9.997       8.978       7.893       6.722       5.550       4.641       3.706       2.619       1.370      4.0620E-03
   4    9.997       8.892       7.665       6.221       4.629       4.116       3.450       2.501       1.323      3.9242E-03
   5    9.997       8.844       7.502       5.657       2.488       3.525       3.271       2.440       1.303      3.8635E-03
   6    9.997       8.900       7.680       6.241       4.652       4.139       3.469       2.515       1.330      3.9453E-03
   7    9.997       8.996       7.927       6.768       5.602       4.692       3.749       2.650       1.386      4.1095E-03
   8    9.998       9.085       8.129       7.117       6.077       5.060       3.981       2.779       1.443      4.2795E-03
   9    9.998       9.147       8.260       7.320       6.326       5.275       4.134       2.872       1.486      4.4084E-03
  10    9.998       9.178       8.323       7.413       6.435       5.375       4.208       2.919       1.509      4.4759E-03
1
              HEAD IN LAYER   4 AT END OF TIME STEP  69 IN STRESS PERIOD    4
  ---------------------------------------------------------------------------

            1           2           3           4           5           6           7           8           9          10
 ........................................................................................................................
   1    9.998       9.091       8.153       7.173       6.158       5.114       4.001       2.779       1.438      4.2978E-03
   2    9.998       9.051       8.064       7.029       5.977       4.963       3.899       2.721       1.412      4.2199E-03
   3    9.997       8.977       7.890       6.718       5.545       4.637       3.702       2.615       1.367      4.0858E-03
   4    9.997       8.890       7.662       6.217       4.630       4.112       3.446       2.497       1.321      3.9472E-03
   5    9.997       8.842       7.499       5.657       2.664       3.527       3.267       2.436       1.300      3.8861E-03
   6    9.997       8.898       7.676       6.237       4.653       4.134       3.465       2.511       1.328      3.9685E-03
   7    9.997       8.995       7.924       6.764       5.597       4.687       3.745       2.646       1.383      4.1338E-03
   8    9.998       9.083       8.126       7.113       6.073       5.055       3.977       2.775       1.440      4.3049E-03
   9    9.998       9.145       8.257       7.317       6.322       5.271       4.130       2.868       1.484      4.4347E-03
  10    9.998       9.176       8.320       7.410       6.431       5.370       4.204       2.916       1.507      4.5027E-03

 HEAD WILL BE SAVED ON UNIT   51 AT END OF TIME STEP   69, STRESS PERIOD    4

 DRAWDOWN WILL BE SAVED ON UNIT   52 AT END OF TIME STEP   69, STRESS PERIOD    4
1
  VOLUMETRIC BUDGET FOR ENTIRE MODEL AT END OF TIME STEP   69, STRESS PERIOD   4
  ------------------------------------------------------------------------------

     CUMULATIVE VOLUMES      L**3       RATES FOR THIS TIME STEP      L**3/T
     ------------------                 ------------------------

           IN:                                      IN:
           ---                                      ---
             STORAGE =      504378.5312               STORAGE =         625.8811
       CONSTANT HEAD =           0.0000         CONSTANT HEAD =           0.0000
               WELLS =           0.0000                 WELLS =           0.0000
     HEAD DEP BOUNDS =       62423.9062       HEAD DEP BOUNDS =         582.1650

            TOTAL IN =      566802.4375              TOTAL IN =        1208.0461

          OUT:                                     OUT:
          ----                                     ----
             STORAGE =           0.0000               STORAGE =           0.0000
       CONSTANT HEAD =           0.0000         CONSTANT HEAD =           0.0000
               WELLS =       84500.0000                 WELLS =         500.0000
     HEAD DEP BOUNDS =      482304.5938       HEAD DEP BOUNDS =         708.0215

           TOTAL OUT =      566804.6250             TOTAL OUT =        1208.0215

            IN - OUT =          -2.1875              IN - OUT =       2.4658E-02

 PERCENT DISCREPANCY =          -0.00     PERCENT DISCREPANCY =           0.00






         TIME SUMMARY AT END OF TIME STEP   69 IN STRESS PERIOD    4
                    SECONDS     MINUTES      HOURS       DAYS        YEARS
                    -----------------------------------------------------------
   TIME STEP LENGTH  86400.      1440.0      24.000      1.0000     2.73785E-03
 STRESS PERIOD TIME 5.96160E+06  99360.      1656.0      69.000     0.18891    
         TOTAL TIME 2.33280E+07 3.88800E+05  6480.0      270.00     0.73922    
1
 
 SOLVING FOR HEAD 

 OUTPUT CONTROL FOR STRESS PERIOD    4   TIME STEP   70
    SAVE HEAD FOR ALL LAYERS
    SAVE DRAWDOWN FOR ALL LAYERS
    SAVE BUDGET
    PRINT HEAD FOR ALL LAYERS
    PRINT BUDGET
 UBDSV1 SAVING "         STORAGE" ON UNIT  53 AT TIME STEP 70, STRESS PERIOD   4
 UBDSV2 SAVING "   CONSTANT HEAD" ON UNIT  53 AT TIME STEP 70, STRESS PERIOD   4
 UBDSV1 SAVING "FLOW RIGHT FACE " ON UNIT  53 AT TIME STEP 70, STRESS PERIOD   4
 UBDSV1 SAVING "FLOW FRONT FACE " ON UNIT  53 AT TIME STEP 70, STRESS PERIOD   4
 UBDSV1 SAVING "FLOW LOWER FACE " ON UNIT  53 AT TIME STEP 70, STRESS PERIOD   4
1
              HEAD IN LAYER   1 AT END OF TIME STEP  70 IN STRESS PERIOD    4
  ---------------------------------------------------------------------------

            1           2           3           4           5           6           7           8           9          10
 ........................................................................................................................
   1    9.998       9.097       8.163       7.186       6.173       5.130       4.016       2.792       1.447      2.0187E-03
   2    9.998       9.057       8.074       7.042       5.993       4.978       3.914       2.733       1.421      1.9797E-03
   3    9.998       8.983       7.901       6.733       5.561       4.652       3.716       2.628       1.376      1.9128E-03
   4    9.997       8.897       7.674       6.233       4.632       4.126       3.460       2.509       1.329      1.8438E-03
   5    9.997       8.850       7.512       5.665       1.680       3.521       3.279       2.448       1.309      1.8133E-03
   6    9.997       8.905       7.688       6.253       4.655       4.148       3.478       2.523       1.336      1.8542E-03
   7    9.998       9.001       7.935       6.779       5.613       4.703       3.759       2.658       1.392      1.9365E-03
   8    9.998       9.089       8.136       7.126       6.087       5.070       3.991       2.788       1.450      2.0219E-03
   9    9.998       9.151       8.266       7.329       6.336       5.286       4.144       2.881       1.493      2.0871E-03
  10    9.998       9.181       8.329       7.422       6.445       5.385       4.218       2.928       1.516      2.1213E-03
1
              HEAD IN LAYER   2 AT END OF TIME STEP  70 IN STRESS PERIOD    4
  ---------------------------------------------------------------------------

            1           2           3           4           5           6           7           8           9          10
 ........................................................................................................................
   1    9.998       9.093       8.155       7.175       6.161       5.118       4.005       2.783       1.442      3.9640E-03
   2    9.998       9.052       8.066       7.032       5.981       4.966       3.903       2.725       1.416      3.8917E-03
   3    9.997       8.978       7.893       6.722       5.549       4.640       3.706       2.619       1.371      3.7673E-03
   4    9.997       8.892       7.665       6.221       4.621       4.115       3.449       2.501       1.324      3.6387E-03
   5    9.997       8.845       7.503       5.651       2.109       3.514       3.269       2.439       1.303      3.5820E-03
   6    9.997       8.900       7.680       6.241       4.644       4.137       3.468       2.515       1.331      3.6584E-03
   7    9.998       8.996       7.927       6.768       5.601       4.691       3.748       2.650       1.387      3.8117E-03
   8    9.998       9.085       8.128       7.116       6.076       5.059       3.981       2.779       1.444      3.9705E-03
   9    9.998       9.147       8.259       7.319       6.325       5.275       4.134       2.873       1.488      4.0909E-03
  10    9.998       9.177       8.322       7.412       6.434       5.374       4.208       2.920       1.511      4.1540E-03
1
              HEAD IN LAYER   3 AT END OF TIME STEP  70 IN STRESS PERIOD    4
  ---------------------------------------------------------------------------

            1           2           3           4           5           6           7           8           9          10
 ........................................................................................................................
   1    9.998       9.090       8.149       7.168       6.152       5.109       3.996       2.776       1.437      4.2608E-03
   2    9.998       9.049       8.061       7.024       5.972       4.957       3.894       2.717       1.411      4.1833E-03
   3    9.997       8.975       7.887       6.714       5.539       4.631       3.697       2.612       1.366      4.0500E-03
   4    9.997       8.889       7.658       6.212       4.619       4.106       3.441       2.494       1.319      3.9122E-03
   5    9.997       8.841       7.496       5.648       2.477       3.514       3.261       2.432       1.298      3.8515E-03
   6    9.997       8.896       7.673       6.233       4.642       4.128       3.460       2.507       1.326      3.9335E-03
   7    9.997       8.993       7.921       6.760       5.592       4.682       3.740       2.643       1.382      4.0979E-03
   8    9.998       9.082       8.123       7.109       6.067       5.050       3.972       2.772       1.439      4.2682E-03
   9    9.998       9.144       8.254       7.312       6.317       5.266       4.125       2.865       1.483      4.3973E-03
  10    9.998       9.175       8.317       7.405       6.426       5.365       4.200       2.913       1.506      4.4651E-03
1
              HEAD IN LAYER   4 AT END OF TIME STEP  70 IN STRESS PERIOD    4
  ---------------------------------------------------------------------------

            1           2           3           4           5           6           7           8           9          10
 ........................................................................................................................
   1    9.998       9.088       8.147       7.164       6.148       5.104       3.992       2.772       1.434      4.2859E-03
   2    9.998       9.048       8.058       7.020       5.967       4.952       3.890       2.713       1.408      4.2079E-03
   3    9.997       8.973       7.884       6.709       5.535       4.626       3.692       2.608       1.363      4.0737E-03
   4    9.997       8.887       7.655       6.208       4.619       4.101       3.436       2.490       1.317      3.9351E-03
   5    9.997       8.839       7.492       5.648       2.653       3.516       3.257       2.429       1.296      3.8741E-03
   6    9.997       8.895       7.670       6.228       4.643       4.124       3.455       2.504       1.324      3.9566E-03
   7    9.997       8.991       7.918       6.756       5.587       4.677       3.735       2.639       1.379      4.1221E-03
   8    9.998       9.080       8.120       7.105       6.063       5.045       3.968       2.768       1.437      4.2936E-03
   9    9.998       9.142       8.251       7.309       6.312       5.261       4.121       2.862       1.480      4.4236E-03
  10    9.998       9.173       8.315       7.402       6.422       5.361       4.196       2.909       1.503      4.4918E-03

 HEAD WILL BE SAVED ON UNIT   51 AT END OF TIME STEP   70, STRESS PERIOD    4

 DRAWDOWN WILL BE SAVED ON UNIT   52 AT END OF TIME STEP   70, STRESS PERIOD    4
1
  VOLUMETRIC BUDGET FOR ENTIRE MODEL AT END OF TIME STEP   70, STRESS PERIOD   4
  ------------------------------------------------------------------------------

     CUMULATIVE VOLUMES      L**3       RATES FOR THIS TIME STEP      L**3/T
     ------------------                 ------------------------

           IN:                                      IN:
           ---                                      ---
             STORAGE =      505000.5000               STORAGE =         621.9641
       CONSTANT HEAD =           0.0000         CONSTANT HEAD =           0.0000
               WELLS =           0.0000                 WELLS =           0.0000
     HEAD DEP BOUNDS =       63007.9727       HEAD DEP BOUNDS =         584.0670

            TOTAL IN =      568008.5000              TOTAL IN =        1206.0310

          OUT:                                     OUT:
          ----                                     ----
             STORAGE =           0.0000               STORAGE =           0.0000
       CONSTANT HEAD =           0.0000         CONSTANT HEAD =           0.0000
               WELLS =       85000.0000                 WELLS =         500.0000
     HEAD DEP BOUNDS =      483010.5938       HEAD DEP BOUNDS =         706.0132

           TOTAL OUT =      568010.6250             TOTAL OUT =        1206.0132

            IN - OUT =          -2.1250              IN - OUT =       1.7822E-02

 PERCENT DISCREPANCY =          -0.00     PERCENT DISCREPANCY =           0.00






         TIME SUMMARY AT END OF TIME STEP   70 IN STRESS PERIOD    4
                    SECONDS     MINUTES      HOURS       DAYS        YEARS
                    -----------------------------------------------------------
   TIME STEP LENGTH  86400.      1440.0      24.000      1.0000     2.73785E-03
 STRESS PERIOD TIME 6.04800E+06 1.00800E+05  1680.0      70.000     0.19165    
         TOTAL TIME 2.34144E+07 3.90240E+05  6504.0      271.00     0.74196    
1
 
 SOLVING FOR HEAD 

 OUTPUT CONTROL FOR STRESS PERIOD    4   TIME STEP   71
    SAVE HEAD FOR ALL LAYERS
    SAVE DRAWDOWN FOR ALL LAYERS
    SAVE BUDGET
    PRINT HEAD FOR ALL LAYERS
    PRINT BUDGET
 UBDSV1 SAVING "         STORAGE" ON UNIT  53 AT TIME STEP 71, STRESS PERIOD   4
 UBDSV2 SAVING "   CONSTANT HEAD" ON UNIT  53 AT TIME STEP 71, STRESS PERIOD   4
 UBDSV1 SAVING "FLOW RIGHT FACE " ON UNIT  53 AT TIME STEP 71, STRESS PERIOD   4
 UBDSV1 SAVING "FLOW FRONT FACE " ON UNIT  53 AT TIME STEP 71, STRESS PERIOD   4
 UBDSV1 SAVING "FLOW LOWER FACE " ON UNIT  53 AT TIME STEP 71, STRESS PERIOD   4
1
              HEAD IN LAYER   1 AT END OF TIME STEP  71 IN STRESS PERIOD    4
  ---------------------------------------------------------------------------

            1           2           3           4           5           6           7           8           9          10
 ........................................................................................................................
   1    9.998       9.094       8.156       7.177       6.163       5.120       4.007       2.785       1.443      2.0127E-03
   2    9.998       9.054       8.068       7.033       5.982       4.968       3.905       2.726       1.417      1.9737E-03
   3    9.998       8.980       7.895       6.724       5.551       4.642       3.707       2.620       1.372      1.9068E-03
   4    9.997       8.894       7.667       6.224       4.621       4.115       3.450       2.502       1.325      1.8377E-03
   5    9.997       8.847       7.506       5.656       1.669       3.510       3.270       2.440       1.305      1.8072E-03
   6    9.997       8.902       7.682       6.244       4.644       4.138       3.469       2.516       1.332      1.8481E-03
   7    9.998       8.998       7.929       6.770       5.603       4.692       3.749       2.651       1.388      1.9306E-03
   8    9.998       9.086       8.130       7.118       6.078       5.060       3.982       2.781       1.446      2.0162E-03
   9    9.998       9.148       8.260       7.321       6.327       5.276       4.135       2.874       1.489      2.0814E-03
  10    9.998       9.178       8.323       7.414       6.436       5.375       4.210       2.922       1.512      2.1157E-03
1
              HEAD IN LAYER   2 AT END OF TIME STEP  71 IN STRESS PERIOD    4
  ---------------------------------------------------------------------------

            1           2           3           4           5           6           7           8           9          10
 ........................................................................................................................
   1    9.998       9.089       8.149       7.167       6.151       5.108       3.996       2.776       1.438      3.9530E-03
   2    9.998       9.049       8.060       7.023       5.970       4.956       3.894       2.717       1.412      3.8806E-03
   3    9.997       8.975       7.886       6.713       5.539       4.630       3.696       2.612       1.367      3.7561E-03
   4    9.997       8.889       7.658       6.212       4.610       4.104       3.440       2.494       1.320      3.6274E-03
   5    9.997       8.841       7.496       5.642       2.098       3.503       3.260       2.432       1.299      3.5708E-03
   6    9.997       8.897       7.673       6.233       4.634       4.126       3.459       2.507       1.327      3.6474E-03
   7    9.997       8.993       7.920       6.759       5.591       4.681       3.739       2.643       1.383      3.8009E-03
   8    9.998       9.082       8.122       7.108       6.066       5.049       3.972       2.773       1.440      3.9599E-03
   9    9.998       9.144       8.253       7.311       6.316       5.265       4.125       2.866       1.484      4.0806E-03
  10    9.998       9.174       8.316       7.404       6.425       5.364       4.200       2.913       1.507      4.1439E-03
1
              HEAD IN LAYER   3 AT END OF TIME STEP  71 IN STRESS PERIOD    4
  ---------------------------------------------------------------------------

            1           2           3           4           5           6           7           8           9          10
 ........................................................................................................................
   1    9.998       9.086       8.143       7.159       6.142       5.098       3.987       2.768       1.433      4.2491E-03
   2    9.998       9.046       8.054       7.015       5.961       4.946       3.885       2.710       1.407      4.1715E-03
   3    9.997       8.972       7.880       6.705       5.529       4.620       3.687       2.605       1.362      4.0381E-03
   4    9.997       8.885       7.652       6.203       4.608       4.095       3.431       2.486       1.315      3.9002E-03
   5    9.997       8.838       7.489       5.639       2.466       3.503       3.251       2.425       1.294      3.8396E-03
   6    9.997       8.893       7.667       6.224       4.632       4.118       3.450       2.500       1.322      3.9217E-03
   7    9.997       8.990       7.915       6.751       5.582       4.672       3.731       2.636       1.378      4.0864E-03
   8    9.998       9.079       8.117       7.100       6.058       5.040       3.963       2.765       1.435      4.2570E-03
   9    9.998       9.141       8.248       7.304       6.307       5.256       4.117       2.859       1.479      4.3864E-03
  10    9.998       9.172       8.311       7.398       6.417       5.356       4.191       2.906       1.502      4.4542E-03
1
              HEAD IN LAYER   4 AT END OF TIME STEP  71 IN STRESS PERIOD    4
  ---------------------------------------------------------------------------

            1           2           3           4           5           6           7           8           9          10
 ........................................................................................................................
   1    9.998       9.085       8.140       7.155       6.138       5.094       3.982       2.765       1.430      4.2741E-03
   2    9.998       9.044       8.051       7.011       5.957       4.942       3.880       2.706       1.404      4.1961E-03
   3    9.997       8.970       7.877       6.701       5.525       4.615       3.683       2.601       1.359      4.0618E-03
   4    9.997       8.883       7.649       6.199       4.609       4.090       3.427       2.483       1.313      3.9231E-03
   5    9.997       8.836       7.486       5.639       2.642       3.505       3.247       2.421       1.292      3.8621E-03
   6    9.997       8.891       7.664       6.220       4.632       4.113       3.446       2.497       1.320      3.9448E-03
   7    9.997       8.988       7.912       6.748       5.577       4.667       3.726       2.632       1.375      4.1106E-03
   8    9.998       9.077       8.114       7.097       6.053       5.035       3.959       2.762       1.433      4.2823E-03
   9    9.998       9.139       8.246       7.301       6.303       5.252       4.112       2.855       1.476      4.4126E-03
  10    9.998       9.170       8.309       7.394       6.413       5.351       4.187       2.903       1.499      4.4809E-03

 HEAD WILL BE SAVED ON UNIT   51 AT END OF TIME STEP   71, STRESS PERIOD    4

 DRAWDOWN WILL BE SAVED ON UNIT   52 AT END OF TIME STEP   71, STRESS PERIOD    4
1
  VOLUMETRIC BUDGET FOR ENTIRE MODEL AT END OF TIME STEP   71, STRESS PERIOD   4
  ------------------------------------------------------------------------------

     CUMULATIVE VOLUMES      L**3       RATES FOR THIS TIME STEP      L**3/T
     ------------------                 ------------------------

           IN:                                      IN:
           ---                                      ---
             STORAGE =      505618.5625               STORAGE =         618.0718
       CONSTANT HEAD =           0.0000         CONSTANT HEAD =           0.0000
               WELLS =           0.0000                 WELLS =           0.0000
     HEAD DEP BOUNDS =       63593.9336       HEAD DEP BOUNDS =         585.9601

            TOTAL IN =      569212.5000              TOTAL IN =        1204.0320

          OUT:                                     OUT:
          ----                                     ----
             STORAGE =           0.0000               STORAGE =           0.0000
       CONSTANT HEAD =           0.0000         CONSTANT HEAD =           0.0000
               WELLS =       85500.0000                 WELLS =         500.0000
     HEAD DEP BOUNDS =      483714.5938       HEAD DEP BOUNDS =         704.0156

           TOTAL OUT =      569214.6250             TOTAL OUT =        1204.0156

            IN - OUT =          -2.1250              IN - OUT =       1.6357E-02

 PERCENT DISCREPANCY =          -0.00     PERCENT DISCREPANCY =           0.00






         TIME SUMMARY AT END OF TIME STEP   71 IN STRESS PERIOD    4
                    SECONDS     MINUTES      HOURS       DAYS        YEARS
                    -----------------------------------------------------------
   TIME STEP LENGTH  86400.      1440.0      24.000      1.0000     2.73785E-03
 STRESS PERIOD TIME 6.13440E+06 1.02240E+05  1704.0      71.000     0.19439    
         TOTAL TIME 2.35008E+07 3.91680E+05  6528.0      272.00     0.74470    
1
 
 SOLVING FOR HEAD 

 OUTPUT CONTROL FOR STRESS PERIOD    4   TIME STEP   72
    SAVE HEAD FOR ALL LAYERS
    SAVE DRAWDOWN FOR ALL LAYERS
    SAVE BUDGET
    PRINT HEAD FOR ALL LAYERS
    PRINT BUDGET
 UBDSV1 SAVING "         STORAGE" ON UNIT  53 AT TIME STEP 72, STRESS PERIOD   4
 UBDSV2 SAVING "   CONSTANT HEAD" ON UNIT  53 AT TIME STEP 72, STRESS PERIOD   4
 UBDSV1 SAVING "FLOW RIGHT FACE " ON UNIT  53 AT TIME STEP 72, STRESS PERIOD   4
 UBDSV1 SAVING "FLOW FRONT FACE " ON UNIT  53 AT TIME STEP 72, STRESS PERIOD   4
 UBDSV1 SAVING "FLOW LOWER FACE " ON UNIT  53 AT TIME STEP 72, STRESS PERIOD   4
1
              HEAD IN LAYER   1 AT END OF TIME STEP  72 IN STRESS PERIOD    4
  ---------------------------------------------------------------------------

            1           2           3           4           5           6           7           8           9          10
 ........................................................................................................................
   1    9.998       9.091       8.150       7.168       6.153       5.109       3.997       2.777       1.439      2.0069E-03
   2    9.998       9.051       8.061       7.025       5.972       4.957       3.895       2.719       1.413      1.9677E-03
   3    9.998       8.977       7.888       6.715       5.540       4.631       3.697       2.613       1.368      1.9006E-03
   4    9.997       8.891       7.661       6.215       4.610       4.104       3.440       2.495       1.321      1.8317E-03
   5    9.997       8.843       7.500       5.647       1.658       3.499       3.260       2.433       1.300      1.8013E-03
   6    9.997       8.898       7.676       6.236       4.634       4.127       3.459       2.508       1.328      1.8424E-03
   7    9.998       8.994       7.922       6.761       5.593       4.682       3.740       2.644       1.384      1.9248E-03
   8    9.998       9.083       8.124       7.109       6.068       5.050       3.973       2.774       1.442      2.0105E-03
   9    9.998       9.145       8.255       7.313       6.317       5.267       4.126       2.867       1.486      2.0760E-03
  10    9.998       9.175       8.318       7.406       6.427       5.366       4.201       2.915       1.509      2.1101E-03
1
              HEAD IN LAYER   2 AT END OF TIME STEP  72 IN STRESS PERIOD    4
  ---------------------------------------------------------------------------

            1           2           3           4           5           6           7           8           9          10
 ........................................................................................................................
   1    9.998       9.086       8.142       7.158       6.141       5.097       3.986       2.769       1.434      3.9420E-03
   2    9.998       9.046       8.054       7.014       5.960       4.946       3.884       2.710       1.408      3.8696E-03
   3    9.997       8.972       7.880       6.704       5.528       4.619       3.687       2.605       1.363      3.7450E-03
   4    9.997       8.885       7.652       6.203       4.600       4.093       3.430       2.486       1.316      3.6163E-03
   5    9.997       8.838       7.490       5.634       2.086       3.492       3.250       2.425       1.295      3.5597E-03
   6    9.997       8.893       7.667       6.224       4.623       4.116       3.449       2.500       1.323      3.6364E-03
   7    9.997       8.990       7.914       6.751       5.581       4.671       3.730       2.636       1.379      3.7902E-03
   8    9.998       9.079       8.116       7.100       6.057       5.039       3.963       2.766       1.437      3.9495E-03
   9    9.998       9.141       8.247       7.303       6.306       5.255       4.116       2.859       1.480      4.0704E-03
  10    9.998       9.171       8.311       7.397       6.416       5.355       4.191       2.907       1.503      4.1338E-03
1
              HEAD IN LAYER   3 AT END OF TIME STEP  72 IN STRESS PERIOD    4
  ---------------------------------------------------------------------------

            1           2           3           4           5           6           7           8           9          10
 ........................................................................................................................
   1    9.998       9.083       8.137       7.151       6.132       5.088       3.978       2.761       1.429      4.2374E-03
   2    9.998       9.043       8.048       7.006       5.951       4.936       3.875       2.703       1.403      4.1597E-03
   3    9.997       8.968       7.874       6.696       5.519       4.610       3.678       2.597       1.358      4.0262E-03
   4    9.997       8.882       7.646       6.194       4.598       4.084       3.421       2.479       1.311      3.8883E-03
   5    9.997       8.834       7.483       5.630       2.455       3.492       3.242       2.418       1.290      3.8277E-03
   6    9.997       8.890       7.661       6.215       4.621       4.107       3.441       2.493       1.318      3.9100E-03
   7    9.997       8.987       7.909       6.743       5.572       4.661       3.721       2.629       1.374      4.0750E-03
   8    9.998       9.076       8.111       7.092       6.048       5.030       3.954       2.758       1.432      4.2458E-03
   9    9.998       9.138       8.242       7.296       6.298       5.247       4.108       2.852       1.475      4.3755E-03
  10    9.998       9.169       8.306       7.390       6.408       5.346       4.183       2.900       1.498      4.4435E-03
1
              HEAD IN LAYER   4 AT END OF TIME STEP  72 IN STRESS PERIOD    4
  ---------------------------------------------------------------------------

            1           2           3           4           5           6           7           8           9          10
 ........................................................................................................................
   1    9.998       9.082       8.134       7.147       6.128       5.083       3.973       2.757       1.426      4.2624E-03
   2    9.998       9.041       8.045       7.003       5.947       4.931       3.871       2.699       1.400      4.1843E-03
   3    9.997       8.967       7.871       6.692       5.514       4.605       3.673       2.594       1.355      4.0499E-03
   4    9.997       8.880       7.642       6.190       4.598       4.080       3.417       2.475       1.309      3.9111E-03
   5    9.997       8.832       7.480       5.630       2.631       3.494       3.238       2.414       1.288      3.8502E-03
   6    9.997       8.888       7.658       6.211       4.622       4.103       3.436       2.489       1.316      3.9331E-03
   7    9.997       8.985       7.906       6.739       5.568       4.657       3.717       2.625       1.372      4.0991E-03
   8    9.998       9.074       8.108       7.089       6.044       5.025       3.950       2.755       1.429      4.2711E-03
   9    9.998       9.136       8.240       7.293       6.294       5.242       4.104       2.848       1.473      4.4017E-03
  10    9.998       9.167       8.303       7.386       6.404       5.342       4.179       2.896       1.496      4.4701E-03

 HEAD WILL BE SAVED ON UNIT   51 AT END OF TIME STEP   72, STRESS PERIOD    4

 DRAWDOWN WILL BE SAVED ON UNIT   52 AT END OF TIME STEP   72, STRESS PERIOD    4
1
  VOLUMETRIC BUDGET FOR ENTIRE MODEL AT END OF TIME STEP   72, STRESS PERIOD   4
  ------------------------------------------------------------------------------

     CUMULATIVE VOLUMES      L**3       RATES FOR THIS TIME STEP      L**3/T
     ------------------                 ------------------------

           IN:                                      IN:
           ---                                      ---
             STORAGE =      506232.7812               STORAGE =         614.2073
       CONSTANT HEAD =           0.0000         CONSTANT HEAD =           0.0000
               WELLS =           0.0000                 WELLS =           0.0000
     HEAD DEP BOUNDS =       64181.7812       HEAD DEP BOUNDS =         587.8457

            TOTAL IN =      570414.5625              TOTAL IN =        1202.0530

          OUT:                                     OUT:
          ----                                     ----
             STORAGE =           0.0000               STORAGE =           0.0000
       CONSTANT HEAD =           0.0000         CONSTANT HEAD =           0.0000
               WELLS =       86000.0000                 WELLS =         500.0000
     HEAD DEP BOUNDS =      484416.6250       HEAD DEP BOUNDS =         702.0354

           TOTAL OUT =      570416.6250             TOTAL OUT =        1202.0354

            IN - OUT =          -2.0625              IN - OUT =       1.7578E-02

 PERCENT DISCREPANCY =          -0.00     PERCENT DISCREPANCY =           0.00






         TIME SUMMARY AT END OF TIME STEP   72 IN STRESS PERIOD    4
                    SECONDS     MINUTES      HOURS       DAYS        YEARS
                    -----------------------------------------------------------
   TIME STEP LENGTH  86400.      1440.0      24.000      1.0000     2.73785E-03
 STRESS PERIOD TIME 6.22080E+06 1.03680E+05  1728.0      72.000     0.19713    
         TOTAL TIME 2.35872E+07 3.93120E+05  6552.0      273.00     0.74743    
1
 
 SOLVING FOR HEAD 

 OUTPUT CONTROL FOR STRESS PERIOD    4   TIME STEP   73
    SAVE HEAD FOR ALL LAYERS
    SAVE DRAWDOWN FOR ALL LAYERS
    SAVE BUDGET
    PRINT HEAD FOR ALL LAYERS
    PRINT BUDGET
 UBDSV1 SAVING "         STORAGE" ON UNIT  53 AT TIME STEP 73, STRESS PERIOD   4
 UBDSV2 SAVING "   CONSTANT HEAD" ON UNIT  53 AT TIME STEP 73, STRESS PERIOD   4
 UBDSV1 SAVING "FLOW RIGHT FACE " ON UNIT  53 AT TIME STEP 73, STRESS PERIOD   4
 UBDSV1 SAVING "FLOW FRONT FACE " ON UNIT  53 AT TIME STEP 73, STRESS PERIOD   4
 UBDSV1 SAVING "FLOW LOWER FACE " ON UNIT  53 AT TIME STEP 73, STRESS PERIOD   4
1
              HEAD IN LAYER   1 AT END OF TIME STEP  73 IN STRESS PERIOD    4
  ---------------------------------------------------------------------------

            1           2           3           4           5           6           7           8           9          10
 ........................................................................................................................
   1    9.998       9.087       8.144       7.160       6.143       5.099       3.988       2.770       1.435      2.0009E-03
   2    9.998       9.047       8.055       7.016       5.962       4.947       3.886       2.711       1.409      1.9618E-03
   3    9.998       8.973       7.882       6.706       5.530       4.620       3.687       2.606       1.364      1.8947E-03
   4    9.997       8.887       7.654       6.206       4.600       4.094       3.431       2.487       1.317      1.8257E-03
   5    9.997       8.840       7.493       5.638       1.647       3.488       3.250       2.425       1.296      1.7954E-03
   6    9.997       8.895       7.670       6.227       4.623       4.116       3.450       2.501       1.324      1.8365E-03
   7    9.998       8.991       7.916       6.753       5.583       4.672       3.731       2.637       1.380      1.9190E-03
   8    9.998       9.080       8.118       7.101       6.058       5.040       3.964       2.767       1.438      2.0050E-03
   9    9.998       9.142       8.249       7.305       6.308       5.257       4.118       2.861       1.482      2.0704E-03
  10    9.998       9.172       8.312       7.398       6.417       5.356       4.193       2.908       1.505      2.1048E-03
1
              HEAD IN LAYER   2 AT END OF TIME STEP  73 IN STRESS PERIOD    4
  ---------------------------------------------------------------------------

            1           2           3           4           5           6           7           8           9          10
 ........................................................................................................................
   1    9.998       9.083       8.136       7.149       6.131       5.087       3.977       2.762       1.430      3.9311E-03
   2    9.998       9.043       8.047       7.005       5.950       4.935       3.875       2.703       1.404      3.8586E-03
   3    9.997       8.968       7.874       6.695       5.518       4.609       3.677       2.597       1.359      3.7340E-03
   4    9.997       8.882       7.646       6.194       4.589       4.083       3.420       2.479       1.312      3.6052E-03
   5    9.997       8.835       7.484       5.625       2.075       3.481       3.240       2.418       1.291      3.5487E-03
   6    9.997       8.890       7.661       6.215       4.613       4.105       3.440       2.493       1.319      3.6255E-03
   7    9.997       8.987       7.908       6.743       5.571       4.660       3.721       2.629       1.375      3.7795E-03
   8    9.998       9.076       8.110       7.091       6.047       5.029       3.954       2.759       1.433      3.9391E-03
   9    9.998       9.138       8.242       7.295       6.297       5.246       4.108       2.852       1.477      4.0602E-03
  10    9.998       9.168       8.305       7.389       6.407       5.346       4.182       2.900       1.500      4.1237E-03
1
              HEAD IN LAYER   3 AT END OF TIME STEP  73 IN STRESS PERIOD    4
  ---------------------------------------------------------------------------

            1           2           3           4           5           6           7           8           9          10
 ........................................................................................................................
   1    9.998       9.080       8.131       7.142       6.122       5.078       3.968       2.754       1.425      4.2257E-03
   2    9.998       9.039       8.042       6.998       5.941       4.926       3.866       2.695       1.399      4.1480E-03
   3    9.997       8.965       7.868       6.687       5.509       4.599       3.668       2.590       1.354      4.0145E-03
   4    9.997       8.879       7.639       6.186       4.587       4.074       3.412       2.472       1.307      3.8765E-03
   5    9.997       8.831       7.477       5.621       2.444       3.482       3.232       2.410       1.287      3.8159E-03
   6    9.997       8.887       7.655       6.207       4.611       4.097       3.431       2.486       1.314      3.8984E-03
   7    9.997       8.983       7.903       6.735       5.562       4.651       3.712       2.622       1.370      4.0636E-03
   8    9.998       9.073       8.105       7.084       6.039       5.020       3.945       2.752       1.428      4.2348E-03
   9    9.998       9.135       8.237       7.288       6.289       5.237       4.099       2.845       1.472      4.3646E-03
  10    9.998       9.166       8.300       7.382       6.399       5.337       4.174       2.893       1.495      4.4328E-03
1
              HEAD IN LAYER   4 AT END OF TIME STEP  73 IN STRESS PERIOD    4
  ---------------------------------------------------------------------------

            1           2           3           4           5           6           7           8           9          10
 ........................................................................................................................
   1    9.998       9.078       8.128       7.138       6.118       5.073       3.964       2.750       1.422      4.2507E-03
   2    9.998       9.038       8.039       6.994       5.937       4.921       3.862       2.692       1.396      4.1725E-03
   3    9.997       8.963       7.865       6.683       5.504       4.595       3.664       2.586       1.351      4.0381E-03
   4    9.997       8.877       7.636       6.181       4.588       4.069       3.408       2.468       1.305      3.8993E-03
   5    9.997       8.829       7.473       5.621       2.620       3.484       3.228       2.407       1.284      3.8384E-03
   6    9.997       8.885       7.651       6.202       4.612       4.092       3.427       2.482       1.312      3.9215E-03
   7    9.997       8.982       7.900       6.731       5.558       4.647       3.708       2.618       1.368      4.0877E-03
   8    9.998       9.071       8.102       7.081       6.035       5.016       3.941       2.748       1.425      4.2600E-03
   9    9.998       9.133       8.234       7.285       6.285       5.233       4.095       2.842       1.469      4.3908E-03
  10    9.998       9.164       8.298       7.379       6.395       5.333       4.170       2.889       1.492      4.4594E-03

 HEAD WILL BE SAVED ON UNIT   51 AT END OF TIME STEP   73, STRESS PERIOD    4

 DRAWDOWN WILL BE SAVED ON UNIT   52 AT END OF TIME STEP   73, STRESS PERIOD    4
1
  VOLUMETRIC BUDGET FOR ENTIRE MODEL AT END OF TIME STEP   73, STRESS PERIOD   4
  ------------------------------------------------------------------------------

     CUMULATIVE VOLUMES      L**3       RATES FOR THIS TIME STEP      L**3/T
     ------------------                 ------------------------

           IN:                                      IN:
           ---                                      ---
             STORAGE =      506843.1562               STORAGE =         610.3677
       CONSTANT HEAD =           0.0000         CONSTANT HEAD =           0.0000
               WELLS =           0.0000                 WELLS =           0.0000
     HEAD DEP BOUNDS =       64771.4844       HEAD DEP BOUNDS =         589.7024

            TOTAL IN =      571614.6250              TOTAL IN =        1200.0701

          OUT:                                     OUT:
          ----                                     ----
             STORAGE =           0.0000               STORAGE =           0.0000
       CONSTANT HEAD =           0.0000         CONSTANT HEAD =           0.0000
               WELLS =       86500.0000                 WELLS =         500.0000
     HEAD DEP BOUNDS =      485116.6875       HEAD DEP BOUNDS =         700.0663

           TOTAL OUT =      571616.6875             TOTAL OUT =        1200.0663

            IN - OUT =          -2.0625              IN - OUT =       3.7842E-03

 PERCENT DISCREPANCY =          -0.00     PERCENT DISCREPANCY =           0.00






         TIME SUMMARY AT END OF TIME STEP   73 IN STRESS PERIOD    4
                    SECONDS     MINUTES      HOURS       DAYS        YEARS
                    -----------------------------------------------------------
   TIME STEP LENGTH  86400.      1440.0      24.000      1.0000     2.73785E-03
 STRESS PERIOD TIME 6.30720E+06 1.05120E+05  1752.0      73.000     0.19986    
         TOTAL TIME 2.36736E+07 3.94560E+05  6576.0      274.00     0.75017    
1
 
 SOLVING FOR HEAD 

 OUTPUT CONTROL FOR STRESS PERIOD    4   TIME STEP   74
    SAVE HEAD FOR ALL LAYERS
    SAVE DRAWDOWN FOR ALL LAYERS
    SAVE BUDGET
    PRINT HEAD FOR ALL LAYERS
    PRINT BUDGET
 UBDSV1 SAVING "         STORAGE" ON UNIT  53 AT TIME STEP 74, STRESS PERIOD   4
 UBDSV2 SAVING "   CONSTANT HEAD" ON UNIT  53 AT TIME STEP 74, STRESS PERIOD   4
 UBDSV1 SAVING "FLOW RIGHT FACE " ON UNIT  53 AT TIME STEP 74, STRESS PERIOD   4
 UBDSV1 SAVING "FLOW FRONT FACE " ON UNIT  53 AT TIME STEP 74, STRESS PERIOD   4
 UBDSV1 SAVING "FLOW LOWER FACE " ON UNIT  53 AT TIME STEP 74, STRESS PERIOD   4
1
              HEAD IN LAYER   1 AT END OF TIME STEP  74 IN STRESS PERIOD    4
  ---------------------------------------------------------------------------

            1           2           3           4           5           6           7           8           9          10
 ........................................................................................................................
   1    9.998       9.084       8.138       7.151       6.133       5.089       3.978       2.763       1.431      1.9950E-03
   2    9.998       9.044       8.049       7.007       5.952       4.937       3.876       2.704       1.405      1.9559E-03
   3    9.998       8.970       7.875       6.697       5.520       4.610       3.678       2.599       1.360      1.8888E-03
   4    9.997       8.884       7.648       6.197       4.589       4.083       3.421       2.480       1.313      1.8197E-03
   5    9.997       8.837       7.487       5.629       1.636       3.478       3.241       2.418       1.292      1.7896E-03
   6    9.997       8.892       7.663       6.218       4.613       4.106       3.440       2.494       1.320      1.8307E-03
   7    9.998       8.988       7.910       6.745       5.573       4.662       3.722       2.630       1.376      1.9133E-03
   8    9.998       9.077       8.112       7.093       6.049       5.031       3.955       2.760       1.434      1.9993E-03
   9    9.998       9.139       8.243       7.297       6.299       5.247       4.109       2.854       1.478      2.0648E-03
  10    9.998       9.169       8.306       7.390       6.408       5.347       4.184       2.902       1.501      2.0993E-03
1
              HEAD IN LAYER   2 AT END OF TIME STEP  74 IN STRESS PERIOD    4
  ---------------------------------------------------------------------------

            1           2           3           4           5           6           7           8           9          10
 ........................................................................................................................
   1    9.998       9.080       8.130       7.141       6.121       5.077       3.968       2.754       1.426      3.9203E-03
   2    9.998       9.039       8.041       6.997       5.940       4.925       3.866       2.696       1.400      3.8477E-03
   3    9.997       8.965       7.867       6.687       5.508       4.598       3.668       2.590       1.355      3.7230E-03
   4    9.997       8.879       7.639       6.186       4.579       4.072       3.411       2.472       1.308      3.5942E-03
   5    9.997       8.831       7.477       5.616       2.064       3.471       3.231       2.410       1.287      3.5377E-03
   6    9.997       8.887       7.655       6.207       4.603       4.095       3.431       2.486       1.315      3.6147E-03
   7    9.997       8.983       7.902       6.734       5.562       4.650       3.712       2.622       1.371      3.7689E-03
   8    9.998       9.072       8.104       7.083       6.038       5.019       3.945       2.752       1.429      3.9288E-03
   9    9.998       9.135       8.236       7.287       6.288       5.236       4.099       2.846       1.473      4.0501E-03
  10    9.998       9.165       8.299       7.381       6.398       5.336       4.174       2.894       1.496      4.1138E-03
1
              HEAD IN LAYER   3 AT END OF TIME STEP  74 IN STRESS PERIOD    4
  ---------------------------------------------------------------------------

            1           2           3           4           5           6           7           8           9          10
 ........................................................................................................................
   1    9.998       9.077       8.124       7.133       6.113       5.068       3.959       2.747       1.421      4.2142E-03
   2    9.998       9.036       8.035       6.989       5.931       4.916       3.857       2.688       1.395      4.1364E-03
   3    9.997       8.962       7.861       6.679       5.499       4.589       3.659       2.583       1.350      4.0028E-03
   4    9.997       8.875       7.633       6.177       4.577       4.063       3.402       2.465       1.303      3.8648E-03
   5    9.997       8.828       7.470       5.612       2.433       3.471       3.223       2.403       1.283      3.8043E-03
   6    9.997       8.883       7.648       6.198       4.601       4.086       3.422       2.479       1.311      3.8869E-03
   7    9.997       8.980       7.897       6.726       5.553       4.641       3.703       2.615       1.366      4.0523E-03
   8    9.998       9.069       8.099       7.076       6.029       5.011       3.936       2.745       1.424      4.2237E-03
   9    9.998       9.132       8.231       7.281       6.280       5.228       4.091       2.839       1.468      4.3539E-03
  10    9.998       9.163       8.294       7.374       6.390       5.328       4.166       2.887       1.491      4.4221E-03
1
              HEAD IN LAYER   4 AT END OF TIME STEP  74 IN STRESS PERIOD    4
  ---------------------------------------------------------------------------

            1           2           3           4           5           6           7           8           9          10
 ........................................................................................................................
   1    9.998       9.075       8.122       7.130       6.108       5.063       3.955       2.743       1.418      4.2391E-03
   2    9.998       9.035       8.033       6.985       5.927       4.911       3.852       2.685       1.392      4.1609E-03
   3    9.997       8.960       7.858       6.675       5.494       4.584       3.654       2.579       1.347      4.0264E-03
   4    9.997       8.874       7.630       6.173       4.578       4.059       3.398       2.461       1.301      3.8875E-03
   5    9.997       8.826       7.467       5.612       2.609       3.473       3.219       2.400       1.280      3.8267E-03
   6    9.997       8.882       7.645       6.194       4.602       4.082       3.418       2.475       1.308      3.9099E-03
   7    9.997       8.979       7.894       6.722       5.548       4.637       3.699       2.611       1.364      4.0764E-03
   8    9.998       9.068       8.096       7.072       6.025       5.006       3.932       2.741       1.422      4.2490E-03
   9    9.998       9.130       8.228       7.277       6.276       5.223       4.087       2.835       1.466      4.3800E-03
  10    9.998       9.161       8.292       7.371       6.386       5.323       4.162       2.883       1.489      4.4487E-03

 HEAD WILL BE SAVED ON UNIT   51 AT END OF TIME STEP   74, STRESS PERIOD    4

 DRAWDOWN WILL BE SAVED ON UNIT   52 AT END OF TIME STEP   74, STRESS PERIOD    4
1
  VOLUMETRIC BUDGET FOR ENTIRE MODEL AT END OF TIME STEP   74, STRESS PERIOD   4
  ------------------------------------------------------------------------------

     CUMULATIVE VOLUMES      L**3       RATES FOR THIS TIME STEP      L**3/T
     ------------------                 ------------------------

           IN:                                      IN:
           ---                                      ---
             STORAGE =      507449.7188               STORAGE =         606.5508
       CONSTANT HEAD =           0.0000         CONSTANT HEAD =           0.0000
               WELLS =           0.0000                 WELLS =           0.0000
     HEAD DEP BOUNDS =       65363.0469       HEAD DEP BOUNDS =         591.5613

            TOTAL IN =      572812.7500              TOTAL IN =        1198.1121

          OUT:                                     OUT:
          ----                                     ----
             STORAGE =           0.0000               STORAGE =           0.0000
       CONSTANT HEAD =           0.0000         CONSTANT HEAD =           0.0000
               WELLS =       87000.0000                 WELLS =         500.0000
     HEAD DEP BOUNDS =      485814.7812       HEAD DEP BOUNDS =         698.1080

           TOTAL OUT =      572814.7500             TOTAL OUT =        1198.1080

            IN - OUT =          -2.0000              IN - OUT =       4.0283E-03

 PERCENT DISCREPANCY =          -0.00     PERCENT DISCREPANCY =           0.00






         TIME SUMMARY AT END OF TIME STEP   74 IN STRESS PERIOD    4
                    SECONDS     MINUTES      HOURS       DAYS        YEARS
                    -----------------------------------------------------------
   TIME STEP LENGTH  86400.      1440.0      24.000      1.0000     2.73785E-03
 STRESS PERIOD TIME 6.39360E+06 1.06560E+05  1776.0      74.000     0.20260    
         TOTAL TIME 2.37600E+07 3.96000E+05  6600.0      275.00     0.75291    
1
 
 SOLVING FOR HEAD 

 OUTPUT CONTROL FOR STRESS PERIOD    4   TIME STEP   75
    SAVE HEAD FOR ALL LAYERS
    SAVE DRAWDOWN FOR ALL LAYERS
    SAVE BUDGET
    PRINT HEAD FOR ALL LAYERS
    PRINT BUDGET
 UBDSV1 SAVING "         STORAGE" ON UNIT  53 AT TIME STEP 75, STRESS PERIOD   4
 UBDSV2 SAVING "   CONSTANT HEAD" ON UNIT  53 AT TIME STEP 75, STRESS PERIOD   4
 UBDSV1 SAVING "FLOW RIGHT FACE " ON UNIT  53 AT TIME STEP 75, STRESS PERIOD   4
 UBDSV1 SAVING "FLOW FRONT FACE " ON UNIT  53 AT TIME STEP 75, STRESS PERIOD   4
 UBDSV1 SAVING "FLOW LOWER FACE " ON UNIT  53 AT TIME STEP 75, STRESS PERIOD   4
1
              HEAD IN LAYER   1 AT END OF TIME STEP  75 IN STRESS PERIOD    4
  ---------------------------------------------------------------------------

            1           2           3           4           5           6           7           8           9          10
 ........................................................................................................................
   1    9.998       9.081       8.131       7.143       6.123       5.078       3.969       2.756       1.428      1.9892E-03
   2    9.998       9.041       8.043       6.999       5.942       4.926       3.867       2.697       1.401      1.9501E-03
   3    9.998       8.967       7.869       6.689       5.510       4.599       3.669       2.591       1.356      1.8831E-03
   4    9.997       8.881       7.642       6.189       4.579       4.072       3.412       2.473       1.309      1.8138E-03
   5    9.997       8.833       7.481       5.620       1.625       3.467       3.231       2.411       1.288      1.7836E-03
   6    9.997       8.889       7.657       6.210       4.603       4.096       3.431       2.487       1.316      1.8249E-03
   7    9.998       8.985       7.904       6.736       5.563       4.652       3.713       2.623       1.373      1.9076E-03
   8    9.998       9.074       8.106       7.085       6.039       5.021       3.946       2.753       1.431      1.9937E-03
   9    9.998       9.136       8.237       7.289       6.289       5.238       4.100       2.847       1.475      2.0593E-03
  10    9.998       9.167       8.301       7.382       6.399       5.338       4.176       2.895       1.498      2.0938E-03
1
              HEAD IN LAYER   2 AT END OF TIME STEP  75 IN STRESS PERIOD    4
  ---------------------------------------------------------------------------

            1           2           3           4           5           6           7           8           9          10
 ........................................................................................................................
   1    9.998       9.077       8.124       7.132       6.111       5.067       3.959       2.747       1.422      3.9095E-03
   2    9.998       9.036       8.035       6.988       5.930       4.915       3.856       2.689       1.396      3.8369E-03
   3    9.997       8.962       7.861       6.678       5.498       4.588       3.658       2.583       1.351      3.7121E-03
   4    9.997       8.876       7.633       6.177       4.569       4.061       3.402       2.465       1.304      3.5833E-03
   5    9.997       8.828       7.471       5.607       2.053       3.460       3.222       2.403       1.283      3.5268E-03
   6    9.997       8.884       7.648       6.198       4.593       4.085       3.421       2.479       1.311      3.6040E-03
   7    9.997       8.980       7.896       6.726       5.552       4.640       3.703       2.615       1.367      3.7584E-03
   8    9.998       9.069       8.099       7.075       6.028       5.010       3.936       2.745       1.425      3.9185E-03
   9    9.998       9.132       8.230       7.280       6.279       5.227       4.090       2.839       1.469      4.0401E-03
  10    9.998       9.163       8.294       7.373       6.389       5.327       4.166       2.887       1.492      4.1038E-03
1
              HEAD IN LAYER   3 AT END OF TIME STEP  75 IN STRESS PERIOD    4
  ---------------------------------------------------------------------------

            1           2           3           4           5           6           7           8           9          10
 ........................................................................................................................
   1    9.998       9.073       8.118       7.125       6.103       5.058       3.950       2.740       1.417      4.2027E-03
   2    9.998       9.033       8.029       6.981       5.921       4.905       3.848       2.681       1.391      4.1249E-03
   3    9.997       8.959       7.855       6.670       5.489       4.579       3.650       2.576       1.346      3.9912E-03
   4    9.997       8.872       7.627       6.168       4.567       4.053       3.393       2.458       1.299      3.8531E-03
   5    9.997       8.825       7.464       5.603       2.422       3.461       3.214       2.396       1.279      3.7926E-03
   6    9.997       8.880       7.642       6.189       4.591       4.076       3.413       2.472       1.307      3.8755E-03
   7    9.997       8.977       7.891       6.718       5.543       4.631       3.694       2.608       1.363      4.0411E-03
   8    9.998       9.066       8.093       7.068       6.020       5.001       3.928       2.738       1.420      4.2128E-03
   9    9.998       9.129       8.225       7.273       6.270       5.218       4.082       2.832       1.464      4.3432E-03
  10    9.998       9.160       8.289       7.367       6.381       5.318       4.157       2.880       1.487      4.4116E-03
1
              HEAD IN LAYER   4 AT END OF TIME STEP  75 IN STRESS PERIOD    4
  ---------------------------------------------------------------------------

            1           2           3           4           5           6           7           8           9          10
 ........................................................................................................................
   1    9.998       9.072       8.116       7.121       6.098       5.053       3.946       2.736       1.415      4.2276E-03
   2    9.998       9.031       8.027       6.977       5.917       4.901       3.843       2.678       1.388      4.1493E-03
   3    9.997       8.957       7.852       6.666       5.484       4.574       3.645       2.572       1.343      4.0147E-03
   4    9.997       8.870       7.623       6.164       4.567       4.048       3.389       2.454       1.297      3.8758E-03
   5    9.997       8.823       7.461       5.604       2.598       3.463       3.210       2.393       1.276      3.8150E-03
   6    9.997       8.879       7.639       6.185       4.592       4.072       3.409       2.468       1.304      3.8984E-03
   7    9.997       8.976       7.888       6.714       5.538       4.627       3.690       2.604       1.360      4.0652E-03
   8    9.998       9.065       8.091       7.064       6.016       4.996       3.924       2.735       1.418      4.2380E-03
   9    9.998       9.127       8.223       7.269       6.266       5.214       4.078       2.829       1.462      4.3693E-03
  10    9.998       9.158       8.286       7.363       6.377       5.314       4.153       2.877       1.485      4.4381E-03

 HEAD WILL BE SAVED ON UNIT   51 AT END OF TIME STEP   75, STRESS PERIOD    4

 DRAWDOWN WILL BE SAVED ON UNIT   52 AT END OF TIME STEP   75, STRESS PERIOD    4
1
  VOLUMETRIC BUDGET FOR ENTIRE MODEL AT END OF TIME STEP   75, STRESS PERIOD   4
  ------------------------------------------------------------------------------

     CUMULATIVE VOLUMES      L**3       RATES FOR THIS TIME STEP      L**3/T
     ------------------                 ------------------------

           IN:                                      IN:
           ---                                      ---
             STORAGE =      508052.4688               STORAGE =         602.7598
       CONSTANT HEAD =           0.0000         CONSTANT HEAD =           0.0000
               WELLS =           0.0000                 WELLS =           0.0000
     HEAD DEP BOUNDS =       65956.4531       HEAD DEP BOUNDS =         593.4088

            TOTAL IN =      574008.9375              TOTAL IN =        1196.1686

          OUT:                                     OUT:
          ----                                     ----
             STORAGE =           0.0000               STORAGE =           0.0000
       CONSTANT HEAD =           0.0000         CONSTANT HEAD =           0.0000
               WELLS =       87500.0000                 WELLS =         500.0000
     HEAD DEP BOUNDS =      486510.9375       HEAD DEP BOUNDS =         696.1628

           TOTAL OUT =      574010.9375             TOTAL OUT =        1196.1628

            IN - OUT =          -2.0000              IN - OUT =       5.7373E-03

 PERCENT DISCREPANCY =          -0.00     PERCENT DISCREPANCY =           0.00






         TIME SUMMARY AT END OF TIME STEP   75 IN STRESS PERIOD    4
                    SECONDS     MINUTES      HOURS       DAYS        YEARS
                    -----------------------------------------------------------
   TIME STEP LENGTH  86400.      1440.0      24.000      1.0000     2.73785E-03
 STRESS PERIOD TIME 6.48000E+06 1.08000E+05  1800.0      75.000     0.20534    
         TOTAL TIME 2.38464E+07 3.97440E+05  6624.0      276.00     0.75565    
1
 
 SOLVING FOR HEAD 

 OUTPUT CONTROL FOR STRESS PERIOD    4   TIME STEP   76
    SAVE HEAD FOR ALL LAYERS
    SAVE DRAWDOWN FOR ALL LAYERS
    SAVE BUDGET
    PRINT HEAD FOR ALL LAYERS
    PRINT BUDGET
 UBDSV1 SAVING "         STORAGE" ON UNIT  53 AT TIME STEP 76, STRESS PERIOD   4
 UBDSV2 SAVING "   CONSTANT HEAD" ON UNIT  53 AT TIME STEP 76, STRESS PERIOD   4
 UBDSV1 SAVING "FLOW RIGHT FACE " ON UNIT  53 AT TIME STEP 76, STRESS PERIOD   4
 UBDSV1 SAVING "FLOW FRONT FACE " ON UNIT  53 AT TIME STEP 76, STRESS PERIOD   4
 UBDSV1 SAVING "FLOW LOWER FACE " ON UNIT  53 AT TIME STEP 76, STRESS PERIOD   4
1
              HEAD IN LAYER   1 AT END OF TIME STEP  76 IN STRESS PERIOD    4
  ---------------------------------------------------------------------------

            1           2           3           4           5           6           7           8           9          10
 ........................................................................................................................
   1    9.998       9.078       8.125       7.134       6.113       5.068       3.960       2.749       1.424      1.9834E-03
   2    9.998       9.038       8.037       6.990       5.932       4.916       3.858       2.690       1.397      1.9443E-03
   3    9.997       8.963       7.863       6.680       5.500       4.589       3.659       2.584       1.352      1.8772E-03
   4    9.997       8.877       7.635       6.180       4.569       4.062       3.402       2.465       1.305      1.8080E-03
   5    9.997       8.830       7.474       5.611       1.614       3.456       3.222       2.404       1.284      1.7778E-03
   6    9.997       8.886       7.651       6.201       4.593       4.085       3.422       2.480       1.313      1.8192E-03
   7    9.998       8.982       7.898       6.728       5.554       4.642       3.704       2.616       1.369      1.9019E-03
   8    9.998       9.071       8.100       7.077       6.030       5.011       3.937       2.747       1.427      1.9883E-03
   9    9.998       9.133       8.232       7.281       6.280       5.228       4.092       2.841       1.471      2.0538E-03
  10    9.998       9.164       8.295       7.375       6.390       5.328       4.167       2.889       1.494      2.0886E-03
1
              HEAD IN LAYER   2 AT END OF TIME STEP  76 IN STRESS PERIOD    4
  ---------------------------------------------------------------------------

            1           2           3           4           5           6           7           8           9          10
 ........................................................................................................................
   1    9.998       9.073       8.118       7.124       6.102       5.057       3.950       2.740       1.418      3.8988E-03
   2    9.998       9.033       8.029       6.980       5.920       4.904       3.847       2.682       1.392      3.8262E-03
   3    9.997       8.959       7.855       6.669       5.488       4.578       3.649       2.576       1.347      3.7013E-03
   4    9.997       8.872       7.627       6.168       4.558       4.051       3.392       2.458       1.300      3.5724E-03
   5    9.997       8.825       7.465       5.598       2.042       3.450       3.212       2.396       1.279      3.5160E-03
   6    9.997       8.881       7.642       6.189       4.583       4.075       3.412       2.472       1.308      3.5933E-03
   7    9.997       8.977       7.890       6.718       5.542       4.631       3.694       2.608       1.364      3.7480E-03
   8    9.998       9.066       8.093       7.067       6.019       5.000       3.927       2.739       1.422      3.9083E-03
   9    9.998       9.129       8.225       7.272       6.270       5.218       4.082       2.833       1.466      4.0301E-03
  10    9.998       9.160       8.288       7.366       6.380       5.318       4.157       2.881       1.489      4.0940E-03
1
              HEAD IN LAYER   3 AT END OF TIME STEP  76 IN STRESS PERIOD    4
  ---------------------------------------------------------------------------

            1           2           3           4           5           6           7           8           9          10
 ........................................................................................................................
   1    9.998       9.070       8.112       7.117       6.093       5.048       3.941       2.733       1.413      4.1913E-03
   2    9.998       9.030       8.023       6.972       5.911       4.895       3.838       2.674       1.387      4.1134E-03
   3    9.997       8.955       7.849       6.661       5.479       4.568       3.640       2.569       1.342      3.9796E-03
   4    9.997       8.869       7.620       6.160       4.556       4.042       3.384       2.450       1.295      3.8415E-03
   5    9.997       8.821       7.458       5.595       2.411       3.450       3.204       2.389       1.275      3.7811E-03
   6    9.997       8.877       7.636       6.181       4.581       4.066       3.404       2.465       1.303      3.8641E-03
   7    9.997       8.974       7.885       6.710       5.533       4.622       3.685       2.601       1.359      4.0300E-03
   8    9.998       9.063       8.088       7.060       6.011       4.991       3.919       2.732       1.417      4.2019E-03
   9    9.998       9.126       8.220       7.265       6.261       5.209       4.074       2.826       1.461      4.3325E-03
  10    9.998       9.157       8.283       7.359       6.372       5.309       4.149       2.874       1.484      4.4011E-03
1
              HEAD IN LAYER   4 AT END OF TIME STEP  76 IN STRESS PERIOD    4
  ---------------------------------------------------------------------------

            1           2           3           4           5           6           7           8           9          10
 ........................................................................................................................
   1    9.998       9.069       8.110       7.113       6.089       5.043       3.936       2.729       1.411      4.2161E-03
   2    9.998       9.028       8.020       6.969       5.907       4.891       3.834       2.671       1.385      4.1378E-03
   3    9.997       8.954       7.846       6.657       5.474       4.564       3.636       2.565       1.339      4.0031E-03
   4    9.997       8.867       7.617       6.155       4.557       4.038       3.379       2.447       1.293      3.8642E-03
   5    9.997       8.820       7.455       5.595       2.588       3.452       3.200       2.386       1.272      3.8035E-03
   6    9.997       8.875       7.633       6.177       4.582       4.062       3.400       2.461       1.300      3.8870E-03
   7    9.997       8.972       7.882       6.706       5.529       4.617       3.681       2.598       1.356      4.0540E-03
   8    9.998       9.062       8.085       7.057       6.006       4.987       3.915       2.728       1.414      4.2271E-03
   9    9.998       9.124       8.217       7.262       6.257       5.205       4.070       2.822       1.458      4.3586E-03
  10    9.998       9.156       8.281       7.356       6.368       5.305       4.145       2.870       1.482      4.4276E-03

 HEAD WILL BE SAVED ON UNIT   51 AT END OF TIME STEP   76, STRESS PERIOD    4

 DRAWDOWN WILL BE SAVED ON UNIT   52 AT END OF TIME STEP   76, STRESS PERIOD    4
1
  VOLUMETRIC BUDGET FOR ENTIRE MODEL AT END OF TIME STEP   76, STRESS PERIOD   4
  ------------------------------------------------------------------------------

     CUMULATIVE VOLUMES      L**3       RATES FOR THIS TIME STEP      L**3/T
     ------------------                 ------------------------

           IN:                                      IN:
           ---                                      ---
             STORAGE =      508651.4688               STORAGE =         598.9940
       CONSTANT HEAD =           0.0000         CONSTANT HEAD =           0.0000
               WELLS =           0.0000                 WELLS =           0.0000
     HEAD DEP BOUNDS =       66551.6875       HEAD DEP BOUNDS =         595.2382

            TOTAL IN =      575203.1250              TOTAL IN =        1194.2322

          OUT:                                     OUT:
          ----                                     ----
             STORAGE =           0.0000               STORAGE =           0.0000
       CONSTANT HEAD =           0.0000         CONSTANT HEAD =           0.0000
               WELLS =       88000.0000                 WELLS =         500.0000
     HEAD DEP BOUNDS =      487205.1562       HEAD DEP BOUNDS =         694.2322

           TOTAL OUT =      575205.1250             TOTAL OUT =        1194.2322

            IN - OUT =          -2.0000              IN - OUT =           0.0000

 PERCENT DISCREPANCY =          -0.00     PERCENT DISCREPANCY =           0.00






         TIME SUMMARY AT END OF TIME STEP   76 IN STRESS PERIOD    4
                    SECONDS     MINUTES      HOURS       DAYS        YEARS
                    -----------------------------------------------------------
   TIME STEP LENGTH  86400.      1440.0      24.000      1.0000     2.73785E-03
 STRESS PERIOD TIME 6.56640E+06 1.09440E+05  1824.0      76.000     0.20808    
         TOTAL TIME 2.39328E+07 3.98880E+05  6648.0      277.00     0.75838    
1
 
 SOLVING FOR HEAD 

 OUTPUT CONTROL FOR STRESS PERIOD    4   TIME STEP   77
    SAVE HEAD FOR ALL LAYERS
    SAVE DRAWDOWN FOR ALL LAYERS
    SAVE BUDGET
    PRINT HEAD FOR ALL LAYERS
    PRINT BUDGET
 UBDSV1 SAVING "         STORAGE" ON UNIT  53 AT TIME STEP 77, STRESS PERIOD   4
 UBDSV2 SAVING "   CONSTANT HEAD" ON UNIT  53 AT TIME STEP 77, STRESS PERIOD   4
 UBDSV1 SAVING "FLOW RIGHT FACE " ON UNIT  53 AT TIME STEP 77, STRESS PERIOD   4
 UBDSV1 SAVING "FLOW FRONT FACE " ON UNIT  53 AT TIME STEP 77, STRESS PERIOD   4
 UBDSV1 SAVING "FLOW LOWER FACE " ON UNIT  53 AT TIME STEP 77, STRESS PERIOD   4
1
              HEAD IN LAYER   1 AT END OF TIME STEP  77 IN STRESS PERIOD    4
  ---------------------------------------------------------------------------

            1           2           3           4           5           6           7           8           9          10
 ........................................................................................................................
   1    9.998       9.075       8.119       7.126       6.103       5.058       3.951       2.742       1.420      1.9776E-03
   2    9.998       9.034       8.030       6.982       5.922       4.906       3.848       2.683       1.393      1.9385E-03
   3    9.997       8.960       7.857       6.672       5.490       4.579       3.650       2.577       1.348      1.8713E-03
   4    9.997       8.874       7.629       6.171       4.558       4.052       3.393       2.458       1.301      1.8023E-03
   5    9.997       8.827       7.468       5.603       1.603       3.446       3.212       2.397       1.281      1.7720E-03
   6    9.997       8.882       7.645       6.192       4.583       4.075       3.413       2.473       1.309      1.8135E-03
   7    9.998       8.979       7.892       6.720       5.544       4.632       3.695       2.609       1.365      1.8963E-03
   8    9.998       9.068       8.094       7.069       6.021       5.002       3.929       2.740       1.423      1.9828E-03
   9    9.998       9.130       8.226       7.273       6.271       5.219       4.083       2.834       1.467      2.0487E-03
  10    9.998       9.161       8.289       7.367       6.381       5.319       4.159       2.882       1.491      2.0832E-03
1
              HEAD IN LAYER   2 AT END OF TIME STEP  77 IN STRESS PERIOD    4
  ---------------------------------------------------------------------------

            1           2           3           4           5           6           7           8           9          10
 ........................................................................................................................
   1    9.998       9.070       8.112       7.116       6.092       5.047       3.940       2.733       1.414      3.8882E-03
   2    9.998       9.030       8.023       6.971       5.910       4.894       3.838       2.675       1.388      3.8155E-03
   3    9.997       8.955       7.849       6.661       5.478       4.567       3.640       2.569       1.343      3.6905E-03
   4    9.997       8.869       7.621       6.160       4.548       4.041       3.383       2.450       1.296      3.5617E-03
   5    9.997       8.822       7.459       5.590       2.031       3.439       3.203       2.389       1.276      3.5053E-03
   6    9.997       8.877       7.636       6.181       4.573       4.064       3.403       2.465       1.304      3.5827E-03
   7    9.997       8.974       7.884       6.709       5.533       4.621       3.685       2.601       1.360      3.7376E-03
   8    9.998       9.063       8.087       7.059       6.010       4.991       3.919       2.732       1.418      3.8982E-03
   9    9.998       9.126       8.219       7.264       6.260       5.208       4.073       2.826       1.462      4.0202E-03
  10    9.998       9.157       8.283       7.358       6.371       5.308       4.149       2.874       1.485      4.0842E-03
1
              HEAD IN LAYER   3 AT END OF TIME STEP  77 IN STRESS PERIOD    4
  ---------------------------------------------------------------------------

            1           2           3           4           5           6           7           8           9          10
 ........................................................................................................................
   1    9.998       9.067       8.106       7.108       6.083       5.038       3.932       2.726       1.409      4.1799E-03
   2    9.998       9.027       8.017       6.964       5.902       4.885       3.829       2.667       1.383      4.1020E-03
   3    9.997       8.952       7.843       6.653       5.469       4.558       3.631       2.562       1.338      3.9682E-03
   4    9.997       8.866       7.614       6.151       4.546       4.032       3.374       2.443       1.291      3.8300E-03
   5    9.997       8.818       7.452       5.586       2.400       3.440       3.195       2.382       1.271      3.7697E-03
   6    9.997       8.874       7.630       6.173       4.571       4.056       3.395       2.458       1.299      3.8528E-03
   7    9.997       8.971       7.879       6.702       5.524       4.612       3.676       2.594       1.355      4.0189E-03
   8    9.998       9.060       8.082       7.052       6.001       4.982       3.910       2.725       1.413      4.1911E-03
   9    9.998       9.123       8.214       7.257       6.252       5.200       4.065       2.819       1.457      4.3220E-03
  10    9.998       9.154       8.278       7.351       6.363       5.300       4.141       2.867       1.480      4.3906E-03
1
              HEAD IN LAYER   4 AT END OF TIME STEP  77 IN STRESS PERIOD    4
  ---------------------------------------------------------------------------

            1           2           3           4           5           6           7           8           9          10
 ........................................................................................................................
   1    9.998       9.066       8.103       7.105       6.079       5.033       3.927       2.722       1.407      4.2047E-03
   2    9.998       9.025       8.014       6.960       5.897       4.881       3.825       2.664       1.381      4.1264E-03
   3    9.997       8.951       7.840       6.649       5.464       4.554       3.627       2.558       1.336      3.9916E-03
   4    9.997       8.864       7.611       6.147       4.547       4.028       3.370       2.440       1.289      3.8527E-03
   5    9.997       8.816       7.449       5.586       2.577       3.442       3.191       2.379       1.269      3.7920E-03
   6    9.997       8.872       7.627       6.168       4.572       4.052       3.391       2.454       1.297      3.8757E-03
   7    9.997       8.969       7.876       6.698       5.519       4.607       3.672       2.591       1.353      4.0429E-03
   8    9.998       9.059       8.079       7.049       5.997       4.977       3.906       2.721       1.411      4.2163E-03
   9    9.998       9.121       8.212       7.254       6.248       5.195       4.061       2.816       1.455      4.3480E-03
  10    9.998       9.153       8.275       7.348       6.359       5.296       4.137       2.864       1.478      4.4171E-03

 HEAD WILL BE SAVED ON UNIT   51 AT END OF TIME STEP   77, STRESS PERIOD    4

 DRAWDOWN WILL BE SAVED ON UNIT   52 AT END OF TIME STEP   77, STRESS PERIOD    4
1
  VOLUMETRIC BUDGET FOR ENTIRE MODEL AT END OF TIME STEP   77, STRESS PERIOD   4
  ------------------------------------------------------------------------------

     CUMULATIVE VOLUMES      L**3       RATES FOR THIS TIME STEP      L**3/T
     ------------------                 ------------------------

           IN:                                      IN:
           ---                                      ---
             STORAGE =      509246.7188               STORAGE =         595.2468
       CONSTANT HEAD =           0.0000         CONSTANT HEAD =           0.0000
               WELLS =           0.0000                 WELLS =           0.0000
     HEAD DEP BOUNDS =       67148.7500       HEAD DEP BOUNDS =         597.0633

            TOTAL IN =      576395.5000              TOTAL IN =        1192.3101

          OUT:                                     OUT:
          ----                                     ----
             STORAGE =           0.0000               STORAGE =           0.0000
       CONSTANT HEAD =           0.0000         CONSTANT HEAD =           0.0000
               WELLS =       88500.0000                 WELLS =         500.0000
     HEAD DEP BOUNDS =      487897.4688       HEAD DEP BOUNDS =         692.3130

           TOTAL OUT =      576397.5000             TOTAL OUT =        1192.3130

            IN - OUT =          -2.0000              IN - OUT =      -2.9297E-03

 PERCENT DISCREPANCY =          -0.00     PERCENT DISCREPANCY =          -0.00






         TIME SUMMARY AT END OF TIME STEP   77 IN STRESS PERIOD    4
                    SECONDS     MINUTES      HOURS       DAYS        YEARS
                    -----------------------------------------------------------
   TIME STEP LENGTH  86400.      1440.0      24.000      1.0000     2.73785E-03
 STRESS PERIOD TIME 6.65280E+06 1.10880E+05  1848.0      77.000     0.21081    
         TOTAL TIME 2.40192E+07 4.00320E+05  6672.0      278.00     0.76112    
1
 
 SOLVING FOR HEAD 

 OUTPUT CONTROL FOR STRESS PERIOD    4   TIME STEP   78
    SAVE HEAD FOR ALL LAYERS
    SAVE DRAWDOWN FOR ALL LAYERS
    SAVE BUDGET
    PRINT HEAD FOR ALL LAYERS
    PRINT BUDGET
 UBDSV1 SAVING "         STORAGE" ON UNIT  53 AT TIME STEP 78, STRESS PERIOD   4
 UBDSV2 SAVING "   CONSTANT HEAD" ON UNIT  53 AT TIME STEP 78, STRESS PERIOD   4
 UBDSV1 SAVING "FLOW RIGHT FACE " ON UNIT  53 AT TIME STEP 78, STRESS PERIOD   4
 UBDSV1 SAVING "FLOW FRONT FACE " ON UNIT  53 AT TIME STEP 78, STRESS PERIOD   4
 UBDSV1 SAVING "FLOW LOWER FACE " ON UNIT  53 AT TIME STEP 78, STRESS PERIOD   4
1
              HEAD IN LAYER   1 AT END OF TIME STEP  78 IN STRESS PERIOD    4
  ---------------------------------------------------------------------------

            1           2           3           4           5           6           7           8           9          10
 ........................................................................................................................
   1    9.998       9.071       8.113       7.117       6.093       5.048       3.942       2.735       1.416      1.9719E-03
   2    9.998       9.031       8.024       6.973       5.912       4.896       3.839       2.676       1.390      1.9327E-03
   3    9.997       8.957       7.851       6.663       5.480       4.569       3.641       2.570       1.344      1.8655E-03
   4    9.997       8.871       7.623       6.163       4.548       4.041       3.383       2.451       1.297      1.7966E-03
   5    9.997       8.824       7.462       5.594       1.592       3.435       3.203       2.390       1.277      1.7663E-03
   6    9.997       8.879       7.639       6.184       4.573       4.065       3.403       2.466       1.305      1.8078E-03
   7    9.998       8.976       7.886       6.711       5.534       4.622       3.686       2.602       1.361      1.8907E-03
   8    9.998       9.065       8.089       7.061       6.011       4.992       3.920       2.733       1.420      1.9772E-03
   9    9.998       9.127       8.220       7.266       6.262       5.210       4.075       2.828       1.464      2.0432E-03
  10    9.998       9.158       8.284       7.359       6.372       5.310       4.150       2.876       1.487      2.0779E-03
1
              HEAD IN LAYER   2 AT END OF TIME STEP  78 IN STRESS PERIOD    4
  ---------------------------------------------------------------------------

            1           2           3           4           5           6           7           8           9          10
 ........................................................................................................................
   1    9.998       9.067       8.106       7.107       6.082       5.037       3.931       2.726       1.411      3.8776E-03
   2    9.998       9.027       8.017       6.963       5.901       4.884       3.829       2.668       1.384      3.8049E-03
   3    9.997       8.952       7.843       6.652       5.468       4.557       3.631       2.562       1.339      3.6799E-03
   4    9.997       8.866       7.614       6.151       4.538       4.030       3.374       2.443       1.292      3.5510E-03
   5    9.997       8.819       7.452       5.581       2.020       3.429       3.194       2.382       1.272      3.4946E-03
   6    9.997       8.874       7.630       6.173       4.563       4.054       3.394       2.458       1.300      3.5722E-03
   7    9.997       8.971       7.878       6.701       5.523       4.611       3.676       2.595       1.356      3.7273E-03
   8    9.998       9.060       8.081       7.051       6.001       4.981       3.910       2.725       1.414      3.8881E-03
   9    9.998       9.123       8.213       7.256       6.251       5.199       4.065       2.820       1.459      4.0103E-03
  10    9.998       9.154       8.277       7.350       6.362       5.299       4.141       2.868       1.482      4.0744E-03
1
              HEAD IN LAYER   3 AT END OF TIME STEP  78 IN STRESS PERIOD    4
  ---------------------------------------------------------------------------

            1           2           3           4           5           6           7           8           9          10
 ........................................................................................................................
   1    9.998       9.064       8.100       7.100       6.074       5.028       3.923       2.719       1.406      4.1687E-03
   2    9.998       9.024       8.011       6.956       5.892       4.875       3.820       2.660       1.379      4.0907E-03
   3    9.997       8.949       7.837       6.645       5.459       4.548       3.622       2.555       1.334      3.9568E-03
   4    9.997       8.862       7.608       6.142       4.536       4.022       3.365       2.436       1.287      3.8186E-03
   5    9.997       8.815       7.446       5.578       2.390       3.429       3.186       2.375       1.267      3.7583E-03
   6    9.997       8.871       7.624       6.164       4.561       4.046       3.386       2.451       1.295      3.8416E-03
   7    9.997       8.968       7.873       6.694       5.514       4.602       3.668       2.588       1.351      4.0079E-03
   8    9.998       9.057       8.076       7.044       5.992       4.972       3.902       2.718       1.410      4.1804E-03
   9    9.998       9.120       8.208       7.250       6.243       5.191       4.057       2.813       1.454      4.3115E-03
  10    9.998       9.151       8.272       7.344       6.354       5.291       4.132       2.861       1.477      4.3802E-03
1
              HEAD IN LAYER   4 AT END OF TIME STEP  78 IN STRESS PERIOD    4
  ---------------------------------------------------------------------------

            1           2           3           4           5           6           7           8           9          10
 ........................................................................................................................
   1    9.998       9.062       8.098       7.096       6.069       5.023       3.918       2.716       1.403      4.1934E-03
   2    9.998       9.022       8.008       6.952       5.888       4.871       3.816       2.657       1.377      4.1150E-03
   3    9.997       8.947       7.834       6.641       5.454       4.543       3.618       2.551       1.332      3.9802E-03
   4    9.997       8.861       7.605       6.138       4.537       4.018       3.361       2.433       1.285      3.8412E-03
   5    9.997       8.813       7.442       5.578       2.566       3.431       3.182       2.372       1.265      3.7806E-03
   6    9.997       8.869       7.621       6.160       4.562       4.042       3.381       2.448       1.293      3.8644E-03
   7    9.997       8.966       7.870       6.690       5.510       4.598       3.664       2.584       1.349      4.0318E-03
   8    9.998       9.056       8.073       7.041       5.988       4.968       3.898       2.715       1.407      4.2055E-03
   9    9.998       9.119       8.206       7.246       6.239       5.186       4.053       2.809       1.451      4.3374E-03
  10    9.998       9.150       8.270       7.340       6.350       5.287       4.128       2.857       1.475      4.4067E-03

 HEAD WILL BE SAVED ON UNIT   51 AT END OF TIME STEP   78, STRESS PERIOD    4

 DRAWDOWN WILL BE SAVED ON UNIT   52 AT END OF TIME STEP   78, STRESS PERIOD    4
1
  VOLUMETRIC BUDGET FOR ENTIRE MODEL AT END OF TIME STEP   78, STRESS PERIOD   4
  ------------------------------------------------------------------------------

     CUMULATIVE VOLUMES      L**3       RATES FOR THIS TIME STEP      L**3/T
     ------------------                 ------------------------

           IN:                                      IN:
           ---                                      ---
             STORAGE =      509838.2500               STORAGE =         591.5255
       CONSTANT HEAD =           0.0000         CONSTANT HEAD =           0.0000
               WELLS =           0.0000                 WELLS =           0.0000
     HEAD DEP BOUNDS =       67747.6250       HEAD DEP BOUNDS =         598.8772

            TOTAL IN =      577585.8750              TOTAL IN =        1190.4027

          OUT:                                     OUT:
          ----                                     ----
             STORAGE =           0.0000               STORAGE =           0.0000
       CONSTANT HEAD =           0.0000         CONSTANT HEAD =           0.0000
               WELLS =       89000.0000                 WELLS =         500.0000
     HEAD DEP BOUNDS =      488587.8750       HEAD DEP BOUNDS =         690.4042

           TOTAL OUT =      577587.8750             TOTAL OUT =        1190.4042

            IN - OUT =          -2.0000              IN - OUT =      -1.4648E-03

 PERCENT DISCREPANCY =          -0.00     PERCENT DISCREPANCY =          -0.00






         TIME SUMMARY AT END OF TIME STEP   78 IN STRESS PERIOD    4
                    SECONDS     MINUTES      HOURS       DAYS        YEARS
                    -----------------------------------------------------------
   TIME STEP LENGTH  86400.      1440.0      24.000      1.0000     2.73785E-03
 STRESS PERIOD TIME 6.73920E+06 1.12320E+05  1872.0      78.000     0.21355    
         TOTAL TIME 2.41056E+07 4.01760E+05  6696.0      279.00     0.76386    
1
 
 SOLVING FOR HEAD 

 OUTPUT CONTROL FOR STRESS PERIOD    4   TIME STEP   79
    SAVE HEAD FOR ALL LAYERS
    SAVE DRAWDOWN FOR ALL LAYERS
    SAVE BUDGET
    PRINT HEAD FOR ALL LAYERS
    PRINT BUDGET
 UBDSV1 SAVING "         STORAGE" ON UNIT  53 AT TIME STEP 79, STRESS PERIOD   4
 UBDSV2 SAVING "   CONSTANT HEAD" ON UNIT  53 AT TIME STEP 79, STRESS PERIOD   4
 UBDSV1 SAVING "FLOW RIGHT FACE " ON UNIT  53 AT TIME STEP 79, STRESS PERIOD   4
 UBDSV1 SAVING "FLOW FRONT FACE " ON UNIT  53 AT TIME STEP 79, STRESS PERIOD   4
 UBDSV1 SAVING "FLOW LOWER FACE " ON UNIT  53 AT TIME STEP 79, STRESS PERIOD   4
1
              HEAD IN LAYER   1 AT END OF TIME STEP  79 IN STRESS PERIOD    4
  ---------------------------------------------------------------------------

            1           2           3           4           5           6           7           8           9          10
 ........................................................................................................................
   1    9.998       9.068       8.107       7.109       6.084       5.038       3.933       2.728       1.412      1.9663E-03
   2    9.998       9.028       8.018       6.965       5.902       4.886       3.830       2.669       1.386      1.9270E-03
   3    9.997       8.954       7.845       6.655       5.470       4.558       3.631       2.563       1.340      1.8598E-03
   4    9.997       8.868       7.617       6.154       4.538       4.031       3.374       2.444       1.293      1.7908E-03
   5    9.997       8.821       7.456       5.585       1.581       3.425       3.194       2.383       1.273      1.7607E-03
   6    9.997       8.876       7.633       6.176       4.563       4.055       3.394       2.459       1.301      1.8023E-03
   7    9.998       8.973       7.880       6.703       5.525       4.612       3.677       2.596       1.357      1.8854E-03
   8    9.998       9.062       8.083       7.053       6.002       4.982       3.911       2.727       1.416      1.9718E-03
   9    9.998       9.124       8.215       7.258       6.253       5.200       4.067       2.821       1.460      2.0378E-03
  10    9.998       9.155       8.278       7.352       6.363       5.301       4.142       2.869       1.484      2.0726E-03
1
              HEAD IN LAYER   2 AT END OF TIME STEP  79 IN STRESS PERIOD    4
  ---------------------------------------------------------------------------

            1           2           3           4           5           6           7           8           9          10
 ........................................................................................................................
   1    9.998       9.064       8.100       7.099       6.072       5.027       3.922       2.720       1.407      3.8671E-03
   2    9.998       9.023       8.011       6.955       5.891       4.874       3.820       2.661       1.380      3.7943E-03
   3    9.997       8.949       7.837       6.644       5.458       4.547       3.621       2.555       1.335      3.6693E-03
   4    9.997       8.863       7.608       6.142       4.528       4.020       3.364       2.436       1.288      3.5403E-03
   5    9.997       8.815       7.446       5.573       2.010       3.418       3.184       2.375       1.268      3.4840E-03
   6    9.997       8.871       7.624       6.164       4.553       4.044       3.385       2.451       1.296      3.5618E-03
   7    9.997       8.968       7.873       6.693       5.514       4.601       3.667       2.588       1.352      3.7171E-03
   8    9.998       9.057       8.076       7.044       5.991       4.972       3.902       2.719       1.411      3.8781E-03
   9    9.998       9.120       8.208       7.249       6.242       5.190       4.057       2.813       1.455      4.0005E-03
  10    9.998       9.151       8.272       7.343       6.353       5.290       4.132       2.862       1.478      4.0648E-03
1
              HEAD IN LAYER   3 AT END OF TIME STEP  79 IN STRESS PERIOD    4
  ---------------------------------------------------------------------------

            1           2           3           4           5           6           7           8           9          10
 ........................................................................................................................
   1    9.998       9.061       8.094       7.092       6.064       5.018       3.914       2.712       1.402      4.1575E-03
   2    9.998       9.020       8.005       6.947       5.882       4.865       3.811       2.654       1.376      4.0795E-03
   3    9.997       8.946       7.831       6.636       5.449       4.538       3.613       2.548       1.330      3.9455E-03
   4    9.997       8.859       7.602       6.134       4.526       4.012       3.356       2.429       1.284      3.8073E-03
   5    9.997       8.812       7.440       5.569       2.379       3.419       3.177       2.368       1.263      3.7470E-03
   6    9.997       8.868       7.618       6.156       4.551       4.036       3.377       2.444       1.291      3.8304E-03
   7    9.997       8.965       7.867       6.686       5.505       4.592       3.659       2.581       1.348      3.9970E-03
   8    9.998       9.055       8.070       7.036       5.983       4.963       3.893       2.712       1.406      4.1697E-03
   9    9.998       9.117       8.203       7.242       6.235       5.181       4.049       2.806       1.450      4.3010E-03
  10    9.998       9.148       8.267       7.336       6.345       5.282       4.124       2.855       1.473      4.3699E-03
1
              HEAD IN LAYER   4 AT END OF TIME STEP  79 IN STRESS PERIOD    4
  ---------------------------------------------------------------------------

            1           2           3           4           5           6           7           8           9          10
 ........................................................................................................................
   1    9.998       9.059       8.092       7.088       6.060       5.013       3.910       2.709       1.399      4.1822E-03
   2    9.998       9.019       8.002       6.944       5.878       4.861       3.807       2.650       1.373      4.1037E-03
   3    9.997       8.944       7.828       6.632       5.445       4.533       3.609       2.544       1.328      3.9689E-03
   4    9.997       8.858       7.599       6.130       4.527       4.007       3.352       2.426       1.281      3.8298E-03
   5    9.997       8.810       7.436       5.569       2.556       3.421       3.173       2.365       1.261      3.7692E-03
   6    9.997       8.866       7.615       6.152       4.552       4.032       3.373       2.441       1.289      3.8532E-03
   7    9.997       8.963       7.864       6.682       5.500       4.588       3.655       2.577       1.345      4.0209E-03
   8    9.998       9.053       8.068       7.033       5.979       4.959       3.889       2.708       1.404      4.1948E-03
   9    9.998       9.116       8.200       7.239       6.231       5.177       4.045       2.803       1.448      4.3269E-03
  10    9.998       9.147       8.264       7.333       6.341       5.278       4.120       2.851       1.471      4.3963E-03

 HEAD WILL BE SAVED ON UNIT   51 AT END OF TIME STEP   79, STRESS PERIOD    4

 DRAWDOWN WILL BE SAVED ON UNIT   52 AT END OF TIME STEP   79, STRESS PERIOD    4
1
  VOLUMETRIC BUDGET FOR ENTIRE MODEL AT END OF TIME STEP   79, STRESS PERIOD   4
  ------------------------------------------------------------------------------

     CUMULATIVE VOLUMES      L**3       RATES FOR THIS TIME STEP      L**3/T
     ------------------                 ------------------------

           IN:                                      IN:
           ---                                      ---
             STORAGE =      510426.0625               STORAGE =         587.8231
       CONSTANT HEAD =           0.0000         CONSTANT HEAD =           0.0000
               WELLS =           0.0000                 WELLS =           0.0000
     HEAD DEP BOUNDS =       68348.2969       HEAD DEP BOUNDS =         600.6733

            TOTAL IN =      578774.3750              TOTAL IN =        1188.4963

          OUT:                                     OUT:
          ----                                     ----
             STORAGE =           0.0000               STORAGE =           0.0000
       CONSTANT HEAD =           0.0000         CONSTANT HEAD =           0.0000
               WELLS =       89500.0000                 WELLS =         500.0000
     HEAD DEP BOUNDS =      489276.3750       HEAD DEP BOUNDS =         688.5125

           TOTAL OUT =      578776.3750             TOTAL OUT =        1188.5125

            IN - OUT =          -2.0000              IN - OUT =      -1.6113E-02

 PERCENT DISCREPANCY =          -0.00     PERCENT DISCREPANCY =          -0.00






         TIME SUMMARY AT END OF TIME STEP   79 IN STRESS PERIOD    4
                    SECONDS     MINUTES      HOURS       DAYS        YEARS
                    -----------------------------------------------------------
   TIME STEP LENGTH  86400.      1440.0      24.000      1.0000     2.73785E-03
 STRESS PERIOD TIME 6.82560E+06 1.13760E+05  1896.0      79.000     0.21629    
         TOTAL TIME 2.41920E+07 4.03200E+05  6720.0      280.00     0.76660    
1
 
 SOLVING FOR HEAD 

 OUTPUT CONTROL FOR STRESS PERIOD    4   TIME STEP   80
    SAVE HEAD FOR ALL LAYERS
    SAVE DRAWDOWN FOR ALL LAYERS
    SAVE BUDGET
    PRINT HEAD FOR ALL LAYERS
    PRINT BUDGET
 UBDSV1 SAVING "         STORAGE" ON UNIT  53 AT TIME STEP 80, STRESS PERIOD   4
 UBDSV2 SAVING "   CONSTANT HEAD" ON UNIT  53 AT TIME STEP 80, STRESS PERIOD   4
 UBDSV1 SAVING "FLOW RIGHT FACE " ON UNIT  53 AT TIME STEP 80, STRESS PERIOD   4
 UBDSV1 SAVING "FLOW FRONT FACE " ON UNIT  53 AT TIME STEP 80, STRESS PERIOD   4
 UBDSV1 SAVING "FLOW LOWER FACE " ON UNIT  53 AT TIME STEP 80, STRESS PERIOD   4
1
              HEAD IN LAYER   1 AT END OF TIME STEP  80 IN STRESS PERIOD    4
  ---------------------------------------------------------------------------

            1           2           3           4           5           6           7           8           9          10
 ........................................................................................................................
   1    9.998       9.065       8.101       7.101       6.074       5.028       3.924       2.721       1.408      1.9606E-03
   2    9.998       9.025       8.012       6.957       5.893       4.876       3.821       2.662       1.382      1.9214E-03
   3    9.997       8.951       7.838       6.646       5.460       4.548       3.622       2.556       1.336      1.8541E-03
   4    9.997       8.865       7.611       6.145       4.528       4.021       3.365       2.437       1.289      1.7852E-03
   5    9.997       8.818       7.450       5.577       1.571       3.415       3.185       2.376       1.269      1.7550E-03
   6    9.997       8.873       7.627       6.167       4.553       4.045       3.385       2.452       1.297      1.7967E-03
   7    9.998       8.970       7.875       6.695       5.515       4.602       3.668       2.589       1.354      1.8799E-03
   8    9.998       9.059       8.077       7.045       5.993       4.973       3.903       2.720       1.412      1.9666E-03
   9    9.998       9.121       8.209       7.250       6.244       5.191       4.058       2.815       1.457      2.0326E-03
  10    9.998       9.152       8.273       7.344       6.355       5.292       4.134       2.863       1.480      2.0673E-03
1
              HEAD IN LAYER   2 AT END OF TIME STEP  80 IN STRESS PERIOD    4
  ---------------------------------------------------------------------------

            1           2           3           4           5           6           7           8           9          10
 ........................................................................................................................
   1    9.998       9.061       8.094       7.091       6.063       5.017       3.913       2.713       1.403      3.8567E-03
   2    9.998       9.020       8.005       6.947       5.881       4.864       3.811       2.654       1.377      3.7838E-03
   3    9.997       8.946       7.831       6.636       5.448       4.537       3.612       2.548       1.331      3.6587E-03
   4    9.997       8.860       7.602       6.134       4.518       4.010       3.355       2.429       1.284      3.5298E-03
   5    9.997       8.812       7.440       5.564       1.999       3.408       3.175       2.368       1.264      3.4735E-03
   6    9.997       8.868       7.618       6.156       4.543       4.034       3.376       2.444       1.292      3.5514E-03
   7    9.997       8.965       7.867       6.685       5.504       4.591       3.658       2.581       1.349      3.7069E-03
   8    9.998       9.054       8.070       7.036       5.982       4.962       3.893       2.712       1.407      3.8682E-03
   9    9.998       9.117       8.202       7.241       6.234       5.181       4.048       2.807       1.451      3.9908E-03
  10    9.998       9.148       8.266       7.335       6.344       5.281       4.124       2.855       1.475      4.0551E-03
1
              HEAD IN LAYER   3 AT END OF TIME STEP  80 IN STRESS PERIOD    4
  ---------------------------------------------------------------------------

            1           2           3           4           5           6           7           8           9          10
 ........................................................................................................................
   1    9.998       9.058       8.088       7.084       6.054       5.008       3.905       2.706       1.398      4.1463E-03
   2    9.998       9.017       7.999       6.939       5.873       4.855       3.802       2.647       1.372      4.0683E-03
   3    9.997       8.943       7.825       6.628       5.439       4.528       3.604       2.541       1.327      3.9342E-03
   4    9.997       8.856       7.596       6.126       4.516       4.001       3.347       2.422       1.280      3.7960E-03
   5    9.997       8.809       7.434       5.561       2.369       3.409       3.168       2.361       1.260      3.7358E-03
   6    9.997       8.865       7.612       6.148       4.541       4.026       3.368       2.437       1.288      3.8193E-03
   7    9.997       8.962       7.861       6.677       5.495       4.583       3.650       2.574       1.344      3.9861E-03
   8    9.998       9.052       8.065       7.029       5.974       4.954       3.885       2.705       1.402      4.1592E-03
   9    9.998       9.114       8.197       7.234       6.226       5.172       4.040       2.800       1.447      4.2906E-03
  10    9.998       9.145       8.261       7.329       6.336       5.273       4.116       2.848       1.470      4.3597E-03
1
              HEAD IN LAYER   4 AT END OF TIME STEP  80 IN STRESS PERIOD    4
  ---------------------------------------------------------------------------

            1           2           3           4           5           6           7           8           9          10
 ........................................................................................................................
   1    9.998       9.056       8.086       7.080       6.050       5.003       3.901       2.702       1.396      4.1710E-03
   2    9.998       9.016       7.996       6.935       5.868       4.851       3.798       2.643       1.369      4.0925E-03
   3    9.997       8.941       7.822       6.624       5.435       4.523       3.600       2.537       1.324      3.9576E-03
   4    9.997       8.854       7.593       6.121       4.517       3.997       3.343       2.419       1.278      3.8185E-03
   5    9.997       8.807       7.430       5.561       2.545       3.411       3.164       2.358       1.257      3.7580E-03
   6    9.997       8.863       7.609       6.144       4.542       4.022       3.364       2.434       1.285      3.8421E-03
   7    9.997       8.960       7.859       6.674       5.491       4.578       3.646       2.571       1.342      4.0100E-03
   8    9.998       9.050       8.062       7.025       5.970       4.949       3.881       2.702       1.400      4.1842E-03
   9    9.998       9.113       8.195       7.231       6.222       5.168       4.036       2.797       1.444      4.3165E-03
  10    9.998       9.144       8.259       7.325       6.333       5.269       4.112       2.845       1.468      4.3860E-03

 HEAD WILL BE SAVED ON UNIT   51 AT END OF TIME STEP   80, STRESS PERIOD    4

 DRAWDOWN WILL BE SAVED ON UNIT   52 AT END OF TIME STEP   80, STRESS PERIOD    4
1
  VOLUMETRIC BUDGET FOR ENTIRE MODEL AT END OF TIME STEP   80, STRESS PERIOD   4
  ------------------------------------------------------------------------------

     CUMULATIVE VOLUMES      L**3       RATES FOR THIS TIME STEP      L**3/T
     ------------------                 ------------------------

           IN:                                      IN:
           ---                                      ---
             STORAGE =      511010.2188               STORAGE =         584.1583
       CONSTANT HEAD =           0.0000         CONSTANT HEAD =           0.0000
               WELLS =           0.0000                 WELLS =           0.0000
     HEAD DEP BOUNDS =       68950.7500       HEAD DEP BOUNDS =         602.4517

            TOTAL IN =      579961.0000              TOTAL IN =        1186.6101

          OUT:                                     OUT:
          ----                                     ----
             STORAGE =           0.0000               STORAGE =           0.0000
       CONSTANT HEAD =           0.0000         CONSTANT HEAD =           0.0000
               WELLS =       90000.0000                 WELLS =         500.0000
     HEAD DEP BOUNDS =      489963.0000       HEAD DEP BOUNDS =         686.6310

           TOTAL OUT =      579963.0000             TOTAL OUT =        1186.6311

            IN - OUT =          -2.0000              IN - OUT =      -2.0996E-02

 PERCENT DISCREPANCY =          -0.00     PERCENT DISCREPANCY =          -0.00






         TIME SUMMARY AT END OF TIME STEP   80 IN STRESS PERIOD    4
                    SECONDS     MINUTES      HOURS       DAYS        YEARS
                    -----------------------------------------------------------
   TIME STEP LENGTH  86400.      1440.0      24.000      1.0000     2.73785E-03
 STRESS PERIOD TIME 6.91200E+06 1.15200E+05  1920.0      80.000     0.21903    
         TOTAL TIME 2.42784E+07 4.04640E+05  6744.0      281.00     0.76934    
1
 
 SOLVING FOR HEAD 

 OUTPUT CONTROL FOR STRESS PERIOD    4   TIME STEP   81
    SAVE HEAD FOR ALL LAYERS
    SAVE DRAWDOWN FOR ALL LAYERS
    SAVE BUDGET
    PRINT HEAD FOR ALL LAYERS
    PRINT BUDGET
 UBDSV1 SAVING "         STORAGE" ON UNIT  53 AT TIME STEP 81, STRESS PERIOD   4
 UBDSV2 SAVING "   CONSTANT HEAD" ON UNIT  53 AT TIME STEP 81, STRESS PERIOD   4
 UBDSV1 SAVING "FLOW RIGHT FACE " ON UNIT  53 AT TIME STEP 81, STRESS PERIOD   4
 UBDSV1 SAVING "FLOW FRONT FACE " ON UNIT  53 AT TIME STEP 81, STRESS PERIOD   4
 UBDSV1 SAVING "FLOW LOWER FACE " ON UNIT  53 AT TIME STEP 81, STRESS PERIOD   4
1
              HEAD IN LAYER   1 AT END OF TIME STEP  81 IN STRESS PERIOD    4
  ---------------------------------------------------------------------------

            1           2           3           4           5           6           7           8           9          10
 ........................................................................................................................
   1    9.998       9.062       8.095       7.092       6.064       5.018       3.915       2.714       1.404      1.9550E-03
   2    9.998       9.022       8.006       6.948       5.883       4.866       3.812       2.655       1.378      1.9158E-03
   3    9.997       8.948       7.832       6.638       5.450       4.538       3.613       2.549       1.333      1.8484E-03
   4    9.997       8.861       7.605       6.137       4.518       4.010       3.356       2.430       1.286      1.7795E-03
   5    9.997       8.814       7.444       5.568       1.560       3.404       3.175       2.369       1.265      1.7494E-03
   6    9.997       8.870       7.621       6.159       4.543       4.035       3.376       2.445       1.293      1.7911E-03
   7    9.998       8.967       7.869       6.687       5.506       4.593       3.659       2.582       1.350      1.8744E-03
   8    9.998       9.056       8.072       7.037       5.984       4.964       3.894       2.714       1.409      1.9612E-03
   9    9.998       9.118       8.204       7.243       6.235       5.182       4.050       2.808       1.453      2.0273E-03
  10    9.998       9.149       8.267       7.337       6.346       5.283       4.126       2.857       1.477      2.0622E-03
1
              HEAD IN LAYER   2 AT END OF TIME STEP  81 IN STRESS PERIOD    4
  ---------------------------------------------------------------------------

            1           2           3           4           5           6           7           8           9          10
 ........................................................................................................................
   1    9.998       9.058       8.088       7.083       6.053       5.007       3.905       2.706       1.399      3.8463E-03
   2    9.998       9.017       7.999       6.938       5.872       4.855       3.802       2.647       1.373      3.7734E-03
   3    9.997       8.943       7.825       6.627       5.438       4.527       3.603       2.541       1.327      3.6482E-03
   4    9.997       8.857       7.596       6.126       4.508       4.000       3.346       2.422       1.281      3.5193E-03
   5    9.997       8.809       7.434       5.556       1.988       3.398       3.166       2.361       1.260      3.4630E-03
   6    9.997       8.865       7.612       6.148       4.533       4.024       3.367       2.437       1.289      3.5411E-03
   7    9.997       8.962       7.861       6.677       5.495       4.582       3.650       2.574       1.345      3.6968E-03
   8    9.998       9.052       8.064       7.028       5.973       4.953       3.885       2.706       1.404      3.8583E-03
   9    9.998       9.114       8.197       7.233       6.225       5.172       4.040       2.801       1.448      3.9811E-03
  10    9.998       9.145       8.261       7.328       6.336       5.272       4.116       2.849       1.471      4.0456E-03
1
              HEAD IN LAYER   3 AT END OF TIME STEP  81 IN STRESS PERIOD    4
  ---------------------------------------------------------------------------

            1           2           3           4           5           6           7           8           9          10
 ........................................................................................................................
   1    9.998       9.055       8.082       7.075       6.045       4.998       3.896       2.699       1.394      4.1353E-03
   2    9.998       9.014       7.993       6.931       5.863       4.846       3.794       2.640       1.368      4.0572E-03
   3    9.997       8.940       7.819       6.620       5.430       4.518       3.595       2.534       1.323      3.9231E-03
   4    9.997       8.853       7.590       6.117       4.506       3.991       3.338       2.416       1.276      3.7848E-03
   5    9.997       8.806       7.428       5.552       2.358       3.399       3.159       2.354       1.256      3.7246E-03
   6    9.997       8.862       7.606       6.139       4.532       4.016       3.359       2.431       1.284      3.8083E-03
   7    9.997       8.959       7.856       6.670       5.486       4.573       3.642       2.568       1.340      3.9754E-03
   8    9.998       9.049       8.059       7.021       5.965       4.944       3.877       2.699       1.399      4.1486E-03
   9    9.998       9.111       8.192       7.227       6.217       5.163       4.032       2.794       1.443      4.2803E-03
  10    9.998       9.143       8.256       7.321       6.328       5.264       4.108       2.842       1.467      4.3495E-03
1
              HEAD IN LAYER   4 AT END OF TIME STEP  81 IN STRESS PERIOD    4
  ---------------------------------------------------------------------------

            1           2           3           4           5           6           7           8           9          10
 ........................................................................................................................
   1    9.998       9.053       8.080       7.072       6.041       4.994       3.892       2.695       1.392      4.1599E-03
   2    9.998       9.013       7.990       6.927       5.859       4.841       3.789       2.636       1.366      4.0814E-03
   3    9.997       8.938       7.816       6.616       5.425       4.514       3.591       2.531       1.320      3.9464E-03
   4    9.997       8.851       7.587       6.113       4.507       3.987       3.334       2.412       1.274      3.8073E-03
   5    9.997       8.804       7.424       5.552       2.535       3.401       3.155       2.351       1.253      3.7468E-03
   6    9.997       8.860       7.603       6.135       4.533       4.012       3.355       2.427       1.282      3.8311E-03
   7    9.997       8.957       7.853       6.666       5.482       4.569       3.638       2.564       1.338      3.9992E-03
   8    9.998       9.047       8.057       7.017       5.961       4.940       3.872       2.696       1.397      4.1736E-03
   9    9.998       9.110       8.189       7.223       6.213       5.159       4.028       2.790       1.441      4.3062E-03
  10    9.998       9.141       8.253       7.318       6.324       5.260       4.104       2.839       1.464      4.3758E-03

 HEAD WILL BE SAVED ON UNIT   51 AT END OF TIME STEP   81, STRESS PERIOD    4

 DRAWDOWN WILL BE SAVED ON UNIT   52 AT END OF TIME STEP   81, STRESS PERIOD    4
1
  VOLUMETRIC BUDGET FOR ENTIRE MODEL AT END OF TIME STEP   81, STRESS PERIOD   4
  ------------------------------------------------------------------------------

     CUMULATIVE VOLUMES      L**3       RATES FOR THIS TIME STEP      L**3/T
     ------------------                 ------------------------

           IN:                                      IN:
           ---                                      ---
             STORAGE =      511590.7188               STORAGE =         580.5151
       CONSTANT HEAD =           0.0000         CONSTANT HEAD =           0.0000
               WELLS =           0.0000                 WELLS =           0.0000
     HEAD DEP BOUNDS =       69554.9844       HEAD DEP BOUNDS =         604.2328

            TOTAL IN =      581145.6875              TOTAL IN =        1184.7479

          OUT:                                     OUT:
          ----                                     ----
             STORAGE =           0.0000               STORAGE =           0.0000
       CONSTANT HEAD =           0.0000         CONSTANT HEAD =           0.0000
               WELLS =       90500.0000                 WELLS =         500.0000
     HEAD DEP BOUNDS =      490647.7500       HEAD DEP BOUNDS =         684.7591

           TOTAL OUT =      581147.7500             TOTAL OUT =        1184.7590

            IN - OUT =          -2.0625              IN - OUT =      -1.1108E-02

 PERCENT DISCREPANCY =          -0.00     PERCENT DISCREPANCY =          -0.00






         TIME SUMMARY AT END OF TIME STEP   81 IN STRESS PERIOD    4
                    SECONDS     MINUTES      HOURS       DAYS        YEARS
                    -----------------------------------------------------------
   TIME STEP LENGTH  86400.      1440.0      24.000      1.0000     2.73785E-03
 STRESS PERIOD TIME 6.99840E+06 1.16640E+05  1944.0      81.000     0.22177    
         TOTAL TIME 2.43648E+07 4.06080E+05  6768.0      282.00     0.77207    
1
 
 SOLVING FOR HEAD 

 OUTPUT CONTROL FOR STRESS PERIOD    4   TIME STEP   82
    SAVE HEAD FOR ALL LAYERS
    SAVE DRAWDOWN FOR ALL LAYERS
    SAVE BUDGET
    PRINT HEAD FOR ALL LAYERS
    PRINT BUDGET
 UBDSV1 SAVING "         STORAGE" ON UNIT  53 AT TIME STEP 82, STRESS PERIOD   4
 UBDSV2 SAVING "   CONSTANT HEAD" ON UNIT  53 AT TIME STEP 82, STRESS PERIOD   4
 UBDSV1 SAVING "FLOW RIGHT FACE " ON UNIT  53 AT TIME STEP 82, STRESS PERIOD   4
 UBDSV1 SAVING "FLOW FRONT FACE " ON UNIT  53 AT TIME STEP 82, STRESS PERIOD   4
 UBDSV1 SAVING "FLOW LOWER FACE " ON UNIT  53 AT TIME STEP 82, STRESS PERIOD   4
1
              HEAD IN LAYER   1 AT END OF TIME STEP  82 IN STRESS PERIOD    4
  ---------------------------------------------------------------------------

            1           2           3           4           5           6           7           8           9          10
 ........................................................................................................................
   1    9.998       9.059       8.089       7.084       6.055       5.009       3.906       2.707       1.401      1.9494E-03
   2    9.998       9.019       8.000       6.940       5.873       4.856       3.803       2.648       1.374      1.9102E-03
   3    9.997       8.944       7.826       6.630       5.440       4.528       3.604       2.542       1.329      1.8429E-03
   4    9.997       8.858       7.599       6.129       4.508       4.000       3.347       2.423       1.282      1.7739E-03
   5    9.997       8.811       7.438       5.560       1.550       3.394       3.166       2.362       1.261      1.7438E-03
   6    9.997       8.867       7.615       6.151       4.534       4.025       3.367       2.438       1.290      1.7855E-03
   7    9.997       8.964       7.863       6.679       5.497       4.583       3.651       2.576       1.346      1.8689E-03
   8    9.998       9.053       8.066       7.030       5.975       4.954       3.886       2.707       1.405      1.9558E-03
   9    9.998       9.115       8.198       7.235       6.226       5.173       4.042       2.802       1.450      2.0221E-03
  10    9.998       9.146       8.262       7.329       6.337       5.274       4.117       2.851       1.473      2.0569E-03
1
              HEAD IN LAYER   2 AT END OF TIME STEP  82 IN STRESS PERIOD    4
  ---------------------------------------------------------------------------

            1           2           3           4           5           6           7           8           9          10
 ........................................................................................................................
   1    9.998       9.055       8.082       7.075       6.044       4.997       3.896       2.699       1.395      3.8360E-03
   2    9.998       9.014       7.993       6.930       5.862       4.845       3.793       2.640       1.369      3.7631E-03
   3    9.997       8.940       7.819       6.619       5.429       4.517       3.594       2.534       1.324      3.6379E-03
   4    9.997       8.853       7.590       6.117       4.498       3.990       3.337       2.416       1.277      3.5088E-03
   5    9.997       8.806       7.428       5.547       1.978       3.388       3.157       2.354       1.257      3.4527E-03
   6    9.997       8.862       7.607       6.140       4.524       4.014       3.358       2.431       1.285      3.5308E-03
   7    9.997       8.959       7.855       6.669       5.485       4.572       3.641       2.568       1.341      3.6867E-03
   8    9.998       9.049       8.059       7.020       5.964       4.944       3.876       2.699       1.400      3.8485E-03
   9    9.998       9.111       8.191       7.226       6.216       5.162       4.032       2.794       1.445      3.9715E-03
  10    9.998       9.142       8.255       7.320       6.327       5.263       4.108       2.843       1.468      4.0360E-03
1
              HEAD IN LAYER   3 AT END OF TIME STEP  82 IN STRESS PERIOD    4
  ---------------------------------------------------------------------------

            1           2           3           4           5           6           7           8           9          10
 ........................................................................................................................
   1    9.998       9.052       8.077       7.067       6.035       4.989       3.887       2.692       1.391      4.1243E-03
   2    9.998       9.011       7.987       6.923       5.854       4.836       3.785       2.633       1.364      4.0462E-03
   3    9.997       8.937       7.813       6.611       5.420       4.508       3.586       2.527       1.319      3.9120E-03
   4    9.997       8.850       7.584       6.109       4.496       3.981       3.329       2.409       1.272      3.7737E-03
   5    9.997       8.803       7.422       5.544       2.348       3.389       3.150       2.347       1.252      3.7135E-03
   6    9.997       8.859       7.600       6.131       4.522       4.006       3.350       2.424       1.280      3.7974E-03
   7    9.997       8.956       7.850       6.662       5.477       4.564       3.633       2.561       1.337      3.9647E-03
   8    9.998       9.046       8.054       7.013       5.956       4.935       3.868       2.693       1.395      4.1382E-03
   9    9.998       9.108       8.186       7.219       6.208       5.154       4.024       2.788       1.440      4.2701E-03
  10    9.998       9.140       8.250       7.314       6.319       5.255       4.100       2.836       1.463      4.3393E-03
1
              HEAD IN LAYER   4 AT END OF TIME STEP  82 IN STRESS PERIOD    4
  ---------------------------------------------------------------------------

            1           2           3           4           5           6           7           8           9          10
 ........................................................................................................................
   1    9.998       9.050       8.074       7.064       6.031       4.984       3.883       2.688       1.388      4.1489E-03
   2    9.998       9.010       7.985       6.919       5.849       4.831       3.780       2.630       1.362      4.0703E-03
   3    9.997       8.935       7.810       6.608       5.416       4.504       3.582       2.524       1.317      3.9353E-03
   4    9.997       8.848       7.581       6.105       4.497       3.977       3.325       2.405       1.270      3.7961E-03
   5    9.997       8.801       7.418       5.544       2.525       3.391       3.146       2.344       1.250      3.7357E-03
   6    9.997       8.857       7.597       6.127       4.523       4.002       3.346       2.421       1.278      3.8201E-03
   7    9.997       8.954       7.847       6.658       5.473       4.559       3.629       2.558       1.335      3.9884E-03
   8    9.998       9.044       8.051       7.010       5.952       4.931       3.864       2.689       1.393      4.1631E-03
   9    9.998       9.107       8.184       7.216       6.204       5.150       4.020       2.784       1.437      4.2959E-03
  10    9.998       9.138       8.248       7.310       6.315       5.251       4.096       2.833       1.461      4.3656E-03

 HEAD WILL BE SAVED ON UNIT   51 AT END OF TIME STEP   82, STRESS PERIOD    4

 DRAWDOWN WILL BE SAVED ON UNIT   52 AT END OF TIME STEP   82, STRESS PERIOD    4
1
  VOLUMETRIC BUDGET FOR ENTIRE MODEL AT END OF TIME STEP   82, STRESS PERIOD   4
  ------------------------------------------------------------------------------

     CUMULATIVE VOLUMES      L**3       RATES FOR THIS TIME STEP      L**3/T
     ------------------                 ------------------------

           IN:                                      IN:
           ---                                      ---
             STORAGE =      512167.5938               STORAGE =         576.8852
       CONSTANT HEAD =           0.0000         CONSTANT HEAD =           0.0000
               WELLS =           0.0000                 WELLS =           0.0000
     HEAD DEP BOUNDS =       70160.9922       HEAD DEP BOUNDS =         606.0040

            TOTAL IN =      582328.5625              TOTAL IN =        1182.8892

          OUT:                                     OUT:
          ----                                     ----
             STORAGE =           0.0000               STORAGE =           0.0000
       CONSTANT HEAD =           0.0000         CONSTANT HEAD =           0.0000
               WELLS =       91000.0000                 WELLS =         500.0000
     HEAD DEP BOUNDS =      491330.6562       HEAD DEP BOUNDS =         682.8994

           TOTAL OUT =      582330.6250             TOTAL OUT =        1182.8994

            IN - OUT =          -2.0625              IN - OUT =      -1.0254E-02

 PERCENT DISCREPANCY =          -0.00     PERCENT DISCREPANCY =          -0.00






         TIME SUMMARY AT END OF TIME STEP   82 IN STRESS PERIOD    4
                    SECONDS     MINUTES      HOURS       DAYS        YEARS
                    -----------------------------------------------------------
   TIME STEP LENGTH  86400.      1440.0      24.000      1.0000     2.73785E-03
 STRESS PERIOD TIME 7.08480E+06 1.18080E+05  1968.0      82.000     0.22450    
         TOTAL TIME 2.44512E+07 4.07520E+05  6792.0      283.00     0.77481    
1
 
 SOLVING FOR HEAD 

 OUTPUT CONTROL FOR STRESS PERIOD    4   TIME STEP   83
    SAVE HEAD FOR ALL LAYERS
    SAVE DRAWDOWN FOR ALL LAYERS
    SAVE BUDGET
    PRINT HEAD FOR ALL LAYERS
    PRINT BUDGET
 UBDSV1 SAVING "         STORAGE" ON UNIT  53 AT TIME STEP 83, STRESS PERIOD   4
 UBDSV2 SAVING "   CONSTANT HEAD" ON UNIT  53 AT TIME STEP 83, STRESS PERIOD   4
 UBDSV1 SAVING "FLOW RIGHT FACE " ON UNIT  53 AT TIME STEP 83, STRESS PERIOD   4
 UBDSV1 SAVING "FLOW FRONT FACE " ON UNIT  53 AT TIME STEP 83, STRESS PERIOD   4
 UBDSV1 SAVING "FLOW LOWER FACE " ON UNIT  53 AT TIME STEP 83, STRESS PERIOD   4
1
              HEAD IN LAYER   1 AT END OF TIME STEP  83 IN STRESS PERIOD    4
  ---------------------------------------------------------------------------

            1           2           3           4           5           6           7           8           9          10
 ........................................................................................................................
   1    9.998       9.056       8.083       7.076       6.045       4.999       3.897       2.700       1.397      1.9438E-03
   2    9.998       9.016       7.994       6.932       5.864       4.846       3.794       2.641       1.370      1.9046E-03
   3    9.997       8.941       7.820       6.621       5.431       4.518       3.595       2.535       1.325      1.8373E-03
   4    9.997       8.855       7.593       6.120       4.498       3.990       3.338       2.416       1.278      1.7683E-03
   5    9.997       8.808       7.432       5.552       1.539       3.384       3.157       2.355       1.258      1.7384E-03
   6    9.997       8.864       7.609       6.143       4.524       4.015       3.359       2.431       1.286      1.7800E-03
   7    9.997       8.961       7.857       6.671       5.487       4.573       3.642       2.569       1.343      1.8636E-03
   8    9.998       9.050       8.060       7.022       5.966       4.945       3.878       2.701       1.401      1.9506E-03
   9    9.998       9.112       8.193       7.227       6.217       5.164       4.033       2.796       1.446      2.0168E-03
  10    9.998       9.144       8.257       7.322       6.328       5.265       4.109       2.844       1.470      2.0518E-03
1
              HEAD IN LAYER   2 AT END OF TIME STEP  83 IN STRESS PERIOD    4
  ---------------------------------------------------------------------------

            1           2           3           4           5           6           7           8           9          10
 ........................................................................................................................
   1    9.998       9.052       8.076       7.067       6.034       4.988       3.887       2.692       1.392      3.8257E-03
   2    9.998       9.011       7.987       6.922       5.853       4.835       3.784       2.633       1.365      3.7528E-03
   3    9.997       8.937       7.813       6.611       5.419       4.507       3.585       2.527       1.320      3.6275E-03
   4    9.997       8.850       7.584       6.109       4.488       3.980       3.328       2.409       1.273      3.4985E-03
   5    9.997       8.803       7.422       5.539       1.967       3.378       3.148       2.347       1.253      3.4424E-03
   6    9.997       8.859       7.601       6.131       4.514       4.005       3.349       2.424       1.281      3.5206E-03
   7    9.997       8.956       7.850       6.661       5.476       4.563       3.633       2.561       1.338      3.6768E-03
   8    9.998       9.046       8.053       7.013       5.955       4.934       3.868       2.693       1.396      3.8387E-03
   9    9.998       9.108       8.186       7.218       6.207       5.153       4.024       2.788       1.441      3.9619E-03
  10    9.998       9.140       8.250       7.313       6.318       5.254       4.100       2.837       1.464      4.0266E-03
1
              HEAD IN LAYER   3 AT END OF TIME STEP  83 IN STRESS PERIOD    4
  ---------------------------------------------------------------------------

            1           2           3           4           5           6           7           8           9          10
 ........................................................................................................................
   1    9.998       9.049       8.071       7.059       6.026       4.979       3.879       2.685       1.387      4.1134E-03
   2    9.998       9.008       7.981       6.915       5.844       4.826       3.776       2.626       1.361      4.0352E-03
   3    9.997       8.933       7.807       6.603       5.410       4.498       3.577       2.521       1.315      3.9009E-03
   4    9.997       8.847       7.578       6.101       4.487       3.971       3.320       2.402       1.269      3.7626E-03
   5    9.997       8.799       7.416       5.536       2.337       3.379       3.141       2.341       1.248      3.7026E-03
   6    9.997       8.856       7.595       6.123       4.512       3.996       3.341       2.417       1.277      3.7865E-03
   7    9.997       8.953       7.844       6.654       5.468       4.554       3.624       2.555       1.333      3.9540E-03
   8    9.998       9.043       8.048       7.006       5.947       4.926       3.860       2.686       1.392      4.1278E-03
   9    9.998       9.106       8.181       7.212       6.199       5.145       4.016       2.781       1.436      4.2599E-03
  10    9.998       9.137       8.245       7.306       6.311       5.246       4.092       2.830       1.460      4.3292E-03
1
              HEAD IN LAYER   4 AT END OF TIME STEP  83 IN STRESS PERIOD    4
  ---------------------------------------------------------------------------

            1           2           3           4           5           6           7           8           9          10
 ........................................................................................................................
   1    9.998       9.047       8.068       7.056       6.022       4.974       3.874       2.682       1.385      4.1379E-03
   2    9.998       9.007       7.979       6.911       5.840       4.822       3.772       2.623       1.358      4.0593E-03
   3    9.997       8.932       7.804       6.599       5.406       4.494       3.573       2.517       1.313      3.9242E-03
   4    9.997       8.845       7.575       6.097       4.488       3.967       3.316       2.399       1.266      3.7850E-03
   5    9.997       8.798       7.413       5.536       2.514       3.381       3.137       2.337       1.246      3.7246E-03
   6    9.997       8.854       7.592       6.119       4.513       3.992       3.337       2.414       1.274      3.8092E-03
   7    9.997       8.951       7.841       6.650       5.463       4.550       3.620       2.551       1.331      3.9778E-03
   8    9.998       9.041       8.046       7.002       5.943       4.922       3.856       2.683       1.390      4.1527E-03
   9    9.998       9.104       8.179       7.209       6.195       5.141       4.012       2.778       1.434      4.2856E-03
  10    9.998       9.136       8.243       7.303       6.307       5.242       4.088       2.826       1.457      4.3555E-03

 HEAD WILL BE SAVED ON UNIT   51 AT END OF TIME STEP   83, STRESS PERIOD    4

 DRAWDOWN WILL BE SAVED ON UNIT   52 AT END OF TIME STEP   83, STRESS PERIOD    4
1
  VOLUMETRIC BUDGET FOR ENTIRE MODEL AT END OF TIME STEP   83, STRESS PERIOD   4
  ------------------------------------------------------------------------------

     CUMULATIVE VOLUMES      L**3       RATES FOR THIS TIME STEP      L**3/T
     ------------------                 ------------------------

           IN:                                      IN:
           ---                                      ---
             STORAGE =      512740.8750               STORAGE =         573.2814
       CONSTANT HEAD =           0.0000         CONSTANT HEAD =           0.0000
               WELLS =           0.0000                 WELLS =           0.0000
     HEAD DEP BOUNDS =       70768.7578       HEAD DEP BOUNDS =         607.7633

            TOTAL IN =      583509.6250              TOTAL IN =        1181.0447

          OUT:                                     OUT:
          ----                                     ----
             STORAGE =           0.0000               STORAGE =           0.0000
       CONSTANT HEAD =           0.0000         CONSTANT HEAD =           0.0000
               WELLS =       91500.0000                 WELLS =         500.0000
     HEAD DEP BOUNDS =      492011.7188       HEAD DEP BOUNDS =         681.0530

           TOTAL OUT =      583511.7500             TOTAL OUT =        1181.0530

            IN - OUT =          -2.1250              IN - OUT =      -8.3008E-03

 PERCENT DISCREPANCY =          -0.00     PERCENT DISCREPANCY =          -0.00






         TIME SUMMARY AT END OF TIME STEP   83 IN STRESS PERIOD    4
                    SECONDS     MINUTES      HOURS       DAYS        YEARS
                    -----------------------------------------------------------
   TIME STEP LENGTH  86400.      1440.0      24.000      1.0000     2.73785E-03
 STRESS PERIOD TIME 7.17120E+06 1.19520E+05  1992.0      83.000     0.22724    
         TOTAL TIME 2.45376E+07 4.08960E+05  6816.0      284.00     0.77755    
1
 
 SOLVING FOR HEAD 

 OUTPUT CONTROL FOR STRESS PERIOD    4   TIME STEP   84
    SAVE HEAD FOR ALL LAYERS
    SAVE DRAWDOWN FOR ALL LAYERS
    SAVE BUDGET
    PRINT HEAD FOR ALL LAYERS
    PRINT BUDGET
 UBDSV1 SAVING "         STORAGE" ON UNIT  53 AT TIME STEP 84, STRESS PERIOD   4
 UBDSV2 SAVING "   CONSTANT HEAD" ON UNIT  53 AT TIME STEP 84, STRESS PERIOD   4
 UBDSV1 SAVING "FLOW RIGHT FACE " ON UNIT  53 AT TIME STEP 84, STRESS PERIOD   4
 UBDSV1 SAVING "FLOW FRONT FACE " ON UNIT  53 AT TIME STEP 84, STRESS PERIOD   4
 UBDSV1 SAVING "FLOW LOWER FACE " ON UNIT  53 AT TIME STEP 84, STRESS PERIOD   4
1
              HEAD IN LAYER   1 AT END OF TIME STEP  84 IN STRESS PERIOD    4
  ---------------------------------------------------------------------------

            1           2           3           4           5           6           7           8           9          10
 ........................................................................................................................
   1    9.998       9.053       8.077       7.068       6.036       4.989       3.888       2.694       1.393      1.9382E-03
   2    9.998       9.012       7.988       6.924       5.854       4.836       3.785       2.635       1.367      1.8990E-03
   3    9.997       8.938       7.815       6.613       5.421       4.508       3.586       2.528       1.321      1.8319E-03
   4    9.997       8.852       7.587       6.112       4.489       3.980       3.329       2.410       1.274      1.7629E-03
   5    9.997       8.805       7.426       5.543       1.529       3.374       3.148       2.348       1.254      1.7329E-03
   6    9.997       8.861       7.603       6.134       4.514       4.005       3.350       2.425       1.282      1.7745E-03
   7    9.997       8.958       7.852       6.663       5.478       4.564       3.634       2.562       1.339      1.8582E-03
   8    9.998       9.047       8.055       7.014       5.957       4.936       3.869       2.694       1.398      1.9453E-03
   9    9.998       9.110       8.187       7.220       6.209       5.155       4.025       2.790       1.443      2.0117E-03
  10    9.998       9.141       8.251       7.314       6.320       5.256       4.101       2.838       1.466      2.0467E-03
1
              HEAD IN LAYER   2 AT END OF TIME STEP  84 IN STRESS PERIOD    4
  ---------------------------------------------------------------------------

            1           2           3           4           5           6           7           8           9          10
 ........................................................................................................................
   1    9.998       9.049       8.070       7.058       6.025       4.978       3.878       2.686       1.388      3.8155E-03
   2    9.998       9.008       7.981       6.914       5.843       4.825       3.776       2.627       1.362      3.7426E-03
   3    9.997       8.934       7.807       6.603       5.410       4.498       3.577       2.521       1.316      3.6173E-03
   4    9.997       8.847       7.578       6.101       4.479       3.970       3.319       2.402       1.269      3.4882E-03
   5    9.997       8.800       7.416       5.531       1.957       3.368       3.139       2.341       1.249      3.4321E-03
   6    9.997       8.856       7.595       6.123       4.504       3.995       3.341       2.417       1.278      3.5105E-03
   7    9.997       8.953       7.844       6.653       5.467       4.553       3.624       2.555       1.334      3.6668E-03
   8    9.998       9.043       8.048       7.005       5.946       4.925       3.860       2.687       1.393      3.8290E-03
   9    9.998       9.106       8.180       7.211       6.199       5.145       4.016       2.782       1.438      3.9524E-03
  10    9.998       9.137       8.245       7.306       6.310       5.246       4.092       2.830       1.461      4.0172E-03
1
              HEAD IN LAYER   3 AT END OF TIME STEP  84 IN STRESS PERIOD    4
  ---------------------------------------------------------------------------

            1           2           3           4           5           6           7           8           9          10
 ........................................................................................................................
   1    9.998       9.046       8.065       7.051       6.017       4.969       3.870       2.679       1.383      4.1025E-03
   2    9.998       9.005       7.976       6.907       5.835       4.816       3.767       2.620       1.357      4.0243E-03
   3    9.997       8.930       7.801       6.595       5.401       4.489       3.568       2.514       1.312      3.8900E-03
   4    9.997       8.844       7.572       6.092       4.477       3.962       3.311       2.395       1.265      3.7517E-03
   5    9.997       8.796       7.410       5.527       2.327       3.369       3.132       2.334       1.245      3.6916E-03
   6    9.997       8.853       7.589       6.115       4.503       3.987       3.333       2.411       1.273      3.7758E-03
   7    9.997       8.950       7.839       6.646       5.458       4.545       3.616       2.548       1.330      3.9435E-03
   8    9.998       9.040       8.043       6.998       5.938       4.917       3.852       2.680       1.388      4.1174E-03
   9    9.998       9.103       8.176       7.204       6.191       5.136       4.008       2.775       1.433      4.2497E-03
  10    9.998       9.134       8.240       7.299       6.302       5.237       4.084       2.824       1.456      4.3192E-03
1
              HEAD IN LAYER   4 AT END OF TIME STEP  84 IN STRESS PERIOD    4
  ---------------------------------------------------------------------------

            1           2           3           4           5           6           7           8           9          10
 ........................................................................................................................
   1    9.998       9.044       8.062       7.048       6.013       4.965       3.866       2.675       1.381      4.1271E-03
   2    9.998       9.003       7.973       6.903       5.831       4.812       3.763       2.616       1.355      4.0484E-03
   3    9.997       8.929       7.798       6.591       5.397       4.484       3.564       2.510       1.309      3.9132E-03
   4    9.997       8.842       7.569       6.088       4.478       3.958       3.307       2.392       1.263      3.7740E-03
   5    9.997       8.795       7.407       5.527       2.504       3.371       3.128       2.331       1.242      3.7137E-03
   6    9.997       8.851       7.586       6.111       4.504       3.983       3.329       2.407       1.271      3.7984E-03
   7    9.997       8.949       7.836       6.642       5.454       4.540       3.612       2.545       1.327      3.9672E-03
   8    9.998       9.039       8.040       6.995       5.934       4.913       3.848       2.677       1.386      4.1423E-03
   9    9.998       9.101       8.173       7.201       6.187       5.132       4.004       2.772       1.431      4.2755E-03
  10    9.998       9.133       8.237       7.296       6.298       5.233       4.080       2.820       1.454      4.3454E-03

 HEAD WILL BE SAVED ON UNIT   51 AT END OF TIME STEP   84, STRESS PERIOD    4

 DRAWDOWN WILL BE SAVED ON UNIT   52 AT END OF TIME STEP   84, STRESS PERIOD    4
1
  VOLUMETRIC BUDGET FOR ENTIRE MODEL AT END OF TIME STEP   84, STRESS PERIOD   4
  ------------------------------------------------------------------------------

     CUMULATIVE VOLUMES      L**3       RATES FOR THIS TIME STEP      L**3/T
     ------------------                 ------------------------

           IN:                                      IN:
           ---                                      ---
             STORAGE =      513310.5938               STORAGE =         569.7092
       CONSTANT HEAD =           0.0000         CONSTANT HEAD =           0.0000
               WELLS =           0.0000                 WELLS =           0.0000
     HEAD DEP BOUNDS =       71378.2734       HEAD DEP BOUNDS =         609.5169

            TOTAL IN =      584688.8750              TOTAL IN =        1179.2261

          OUT:                                     OUT:
          ----                                     ----
             STORAGE =           0.0000               STORAGE =           0.0000
       CONSTANT HEAD =           0.0000         CONSTANT HEAD =           0.0000
               WELLS =       92000.0000                 WELLS =         500.0000
     HEAD DEP BOUNDS =      492690.9375       HEAD DEP BOUNDS =         679.2184

           TOTAL OUT =      584690.9375             TOTAL OUT =        1179.2184

            IN - OUT =          -2.0625              IN - OUT =       7.6904E-03

 PERCENT DISCREPANCY =          -0.00     PERCENT DISCREPANCY =           0.00






         TIME SUMMARY AT END OF TIME STEP   84 IN STRESS PERIOD    4
                    SECONDS     MINUTES      HOURS       DAYS        YEARS
                    -----------------------------------------------------------
   TIME STEP LENGTH  86400.      1440.0      24.000      1.0000     2.73785E-03
 STRESS PERIOD TIME 7.25760E+06 1.20960E+05  2016.0      84.000     0.22998    
         TOTAL TIME 2.46240E+07 4.10400E+05  6840.0      285.00     0.78029    
1
 
 SOLVING FOR HEAD 

 OUTPUT CONTROL FOR STRESS PERIOD    4   TIME STEP   85
    SAVE HEAD FOR ALL LAYERS
    SAVE DRAWDOWN FOR ALL LAYERS
    SAVE BUDGET
    PRINT HEAD FOR ALL LAYERS
    PRINT BUDGET
 UBDSV1 SAVING "         STORAGE" ON UNIT  53 AT TIME STEP 85, STRESS PERIOD   4
 UBDSV2 SAVING "   CONSTANT HEAD" ON UNIT  53 AT TIME STEP 85, STRESS PERIOD   4
 UBDSV1 SAVING "FLOW RIGHT FACE " ON UNIT  53 AT TIME STEP 85, STRESS PERIOD   4
 UBDSV1 SAVING "FLOW FRONT FACE " ON UNIT  53 AT TIME STEP 85, STRESS PERIOD   4
 UBDSV1 SAVING "FLOW LOWER FACE " ON UNIT  53 AT TIME STEP 85, STRESS PERIOD   4
1
              HEAD IN LAYER   1 AT END OF TIME STEP  85 IN STRESS PERIOD    4
  ---------------------------------------------------------------------------

            1           2           3           4           5           6           7           8           9          10
 ........................................................................................................................
   1    9.998       9.050       8.072       7.060       6.027       4.979       3.880       2.687       1.390      1.9327E-03
   2    9.998       9.009       7.983       6.916       5.845       4.827       3.777       2.628       1.363      1.8935E-03
   3    9.997       8.935       7.809       6.605       5.412       4.499       3.578       2.522       1.318      1.8264E-03
   4    9.997       8.849       7.581       6.104       4.479       3.970       3.320       2.403       1.271      1.7573E-03
   5    9.997       8.802       7.420       5.535       1.519       3.364       3.140       2.341       1.250      1.7274E-03
   6    9.997       8.858       7.597       6.126       4.505       3.995       3.341       2.418       1.279      1.7692E-03
   7    9.997       8.955       7.846       6.656       5.469       4.555       3.625       2.556       1.336      1.8528E-03
   8    9.998       9.044       8.049       7.007       5.948       4.927       3.861       2.688       1.394      1.9401E-03
   9    9.998       9.107       8.182       7.213       6.200       5.146       4.017       2.783       1.439      2.0066E-03
  10    9.998       9.138       8.246       7.307       6.311       5.247       4.093       2.832       1.463      2.0417E-03
1
              HEAD IN LAYER   2 AT END OF TIME STEP  85 IN STRESS PERIOD    4
  ---------------------------------------------------------------------------

            1           2           3           4           5           6           7           8           9          10
 ........................................................................................................................
   1    9.998       9.045       8.064       7.051       6.016       4.969       3.870       2.679       1.384      3.8054E-03
   2    9.998       9.005       7.975       6.906       5.834       4.816       3.767       2.620       1.358      3.7324E-03
   3    9.997       8.931       7.801       6.595       5.400       4.488       3.568       2.514       1.313      3.6071E-03
   4    9.997       8.844       7.572       6.093       4.469       3.960       3.310       2.395       1.266      3.4780E-03
   5    9.997       8.797       7.411       5.522       1.947       3.358       3.131       2.334       1.245      3.4219E-03
   6    9.997       8.853       7.589       6.115       4.495       3.985       3.332       2.411       1.274      3.5005E-03
   7    9.997       8.950       7.838       6.646       5.458       4.544       3.616       2.548       1.331      3.6570E-03
   8    9.998       9.040       8.042       6.997       5.937       4.916       3.851       2.680       1.389      3.8194E-03
   9    9.998       9.103       8.175       7.204       6.190       5.136       4.008       2.776       1.434      3.9429E-03
  10    9.998       9.134       8.239       7.298       6.301       5.237       4.084       2.824       1.458      4.0079E-03
1
              HEAD IN LAYER   3 AT END OF TIME STEP  85 IN STRESS PERIOD    4
  ---------------------------------------------------------------------------

            1           2           3           4           5           6           7           8           9          10
 ........................................................................................................................
   1    9.998       9.043       8.059       7.043       6.008       4.960       3.861       2.672       1.380      4.0917E-03
   2    9.998       9.002       7.970       6.899       5.825       4.807       3.759       2.613       1.353      4.0135E-03
   3    9.997       8.927       7.795       6.587       5.391       4.479       3.560       2.507       1.308      3.8791E-03
   4    9.997       8.841       7.566       6.084       4.467       3.952       3.302       2.389       1.261      3.7408E-03
   5    9.997       8.793       7.404       5.519       2.317       3.359       3.123       2.327       1.241      3.6808E-03
   6    9.997       8.850       7.583       6.107       4.493       3.977       3.324       2.404       1.269      3.7651E-03
   7    9.997       8.947       7.833       6.638       5.449       4.535       3.608       2.542       1.326      3.9330E-03
   8    9.998       9.037       8.037       6.991       5.929       4.908       3.843       2.674       1.385      4.1072E-03
   9    9.998       9.100       8.170       7.197       6.182       5.127       4.000       2.769       1.430      4.2397E-03
  10    9.998       9.131       8.234       7.292       6.294       5.229       4.076       2.818       1.453      4.3093E-03
1
              HEAD IN LAYER   4 AT END OF TIME STEP  85 IN STRESS PERIOD    4
  ---------------------------------------------------------------------------

            1           2           3           4           5           6           7           8           9          10
 ........................................................................................................................
   1    9.998       9.041       8.057       7.040       6.003       4.955       3.857       2.669       1.377      4.1162E-03
   2    9.998       9.000       7.967       6.895       5.821       4.803       3.754       2.610       1.351      4.0375E-03
   3    9.997       8.926       7.792       6.583       5.387       4.475       3.556       2.504       1.306      3.9023E-03
   4    9.997       8.839       7.563       6.080       4.468       3.948       3.299       2.385       1.259      3.7631E-03
   5    9.997       8.792       7.401       5.519       2.494       3.361       3.119       2.324       1.239      3.7028E-03
   6    9.997       8.848       7.580       6.103       4.494       3.973       3.320       2.401       1.267      3.7876E-03
   7    9.997       8.946       7.830       6.634       5.445       4.531       3.604       2.538       1.324      3.9566E-03
   8    9.998       9.036       8.035       6.987       5.925       4.904       3.839       2.670       1.383      4.1320E-03
   9    9.998       9.099       8.168       7.194       6.178       5.123       3.996       2.766       1.427      4.2654E-03
  10    9.998       9.130       8.232       7.289       6.290       5.225       4.072       2.814       1.451      4.3354E-03

 HEAD WILL BE SAVED ON UNIT   51 AT END OF TIME STEP   85, STRESS PERIOD    4

 DRAWDOWN WILL BE SAVED ON UNIT   52 AT END OF TIME STEP   85, STRESS PERIOD    4
1
  VOLUMETRIC BUDGET FOR ENTIRE MODEL AT END OF TIME STEP   85, STRESS PERIOD   4
  ------------------------------------------------------------------------------

     CUMULATIVE VOLUMES      L**3       RATES FOR THIS TIME STEP      L**3/T
     ------------------                 ------------------------

           IN:                                      IN:
           ---                                      ---
             STORAGE =      513876.7500               STORAGE =         566.1439
       CONSTANT HEAD =           0.0000         CONSTANT HEAD =           0.0000
               WELLS =           0.0000                 WELLS =           0.0000
     HEAD DEP BOUNDS =       71989.5312       HEAD DEP BOUNDS =         611.2560

            TOTAL IN =      585866.2500              TOTAL IN =        1177.3999

          OUT:                                     OUT:
          ----                                     ----
             STORAGE =           0.0000               STORAGE =           0.0000
       CONSTANT HEAD =           0.0000         CONSTANT HEAD =           0.0000
               WELLS =       92500.0000                 WELLS =         500.0000
     HEAD DEP BOUNDS =      493368.3438       HEAD DEP BOUNDS =         677.3952

           TOTAL OUT =      585868.3750             TOTAL OUT =        1177.3953

            IN - OUT =          -2.1250              IN - OUT =       4.6387E-03

 PERCENT DISCREPANCY =          -0.00     PERCENT DISCREPANCY =           0.00






         TIME SUMMARY AT END OF TIME STEP   85 IN STRESS PERIOD    4
                    SECONDS     MINUTES      HOURS       DAYS        YEARS
                    -----------------------------------------------------------
   TIME STEP LENGTH  86400.      1440.0      24.000      1.0000     2.73785E-03
 STRESS PERIOD TIME 7.34400E+06 1.22400E+05  2040.0      85.000     0.23272    
         TOTAL TIME 2.47104E+07 4.11840E+05  6864.0      286.00     0.78303    
1
 
 SOLVING FOR HEAD 

 OUTPUT CONTROL FOR STRESS PERIOD    4   TIME STEP   86
    SAVE HEAD FOR ALL LAYERS
    SAVE DRAWDOWN FOR ALL LAYERS
    SAVE BUDGET
    PRINT HEAD FOR ALL LAYERS
    PRINT BUDGET
 UBDSV1 SAVING "         STORAGE" ON UNIT  53 AT TIME STEP 86, STRESS PERIOD   4
 UBDSV2 SAVING "   CONSTANT HEAD" ON UNIT  53 AT TIME STEP 86, STRESS PERIOD   4
 UBDSV1 SAVING "FLOW RIGHT FACE " ON UNIT  53 AT TIME STEP 86, STRESS PERIOD   4
 UBDSV1 SAVING "FLOW FRONT FACE " ON UNIT  53 AT TIME STEP 86, STRESS PERIOD   4
 UBDSV1 SAVING "FLOW LOWER FACE " ON UNIT  53 AT TIME STEP 86, STRESS PERIOD   4
1
              HEAD IN LAYER   1 AT END OF TIME STEP  86 IN STRESS PERIOD    4
  ---------------------------------------------------------------------------

            1           2           3           4           5           6           7           8           9          10
 ........................................................................................................................
   1    9.998       9.047       8.066       7.052       6.017       4.970       3.871       2.680       1.386      1.9273E-03
   2    9.998       9.006       7.977       6.908       5.836       4.817       3.768       2.621       1.359      1.8880E-03
   3    9.997       8.932       7.803       6.597       5.402       4.489       3.569       2.515       1.314      1.8209E-03
   4    9.997       8.846       7.575       6.096       4.469       3.961       3.311       2.396       1.267      1.7520E-03
   5    9.997       8.799       7.414       5.527       1.508       3.354       3.131       2.335       1.246      1.7220E-03
   6    9.997       8.855       7.592       6.118       4.495       3.986       3.332       2.411       1.275      1.7640E-03
   7    9.997       8.952       7.840       6.648       5.460       4.545       3.617       2.549       1.332      1.8476E-03
   8    9.998       9.041       8.044       6.999       5.939       4.918       3.853       2.682       1.391      1.9348E-03
   9    9.998       9.104       8.177       7.205       6.191       5.137       4.009       2.777       1.436      2.0016E-03
  10    9.998       9.135       8.241       7.300       6.303       5.238       4.085       2.826       1.459      2.0367E-03
1
              HEAD IN LAYER   2 AT END OF TIME STEP  86 IN STRESS PERIOD    4
  ---------------------------------------------------------------------------

            1           2           3           4           5           6           7           8           9          10
 ........................................................................................................................
   1    9.998       9.043       8.059       7.043       6.007       4.959       3.861       2.672       1.381      3.7954E-03
   2    9.998       9.002       7.969       6.898       5.825       4.806       3.758       2.613       1.354      3.7223E-03
   3    9.997       8.928       7.795       6.587       5.391       4.478       3.559       2.507       1.309      3.5969E-03
   4    9.997       8.841       7.567       6.084       4.459       3.950       3.302       2.389       1.262      3.4678E-03
   5    9.997       8.794       7.405       5.514       1.936       3.348       3.122       2.327       1.242      3.4119E-03
   6    9.997       8.850       7.583       6.107       4.485       3.976       3.323       2.404       1.270      3.4905E-03
   7    9.997       8.947       7.833       6.638       5.449       4.535       3.607       2.542       1.327      3.6472E-03
   8    9.998       9.037       8.037       6.990       5.929       4.907       3.843       2.674       1.386      3.8098E-03
   9    9.998       9.100       8.170       7.196       6.181       5.127       4.000       2.769       1.431      3.9336E-03
  10    9.998       9.131       8.234       7.291       6.293       5.228       4.076       2.818       1.454      3.9986E-03
1
              HEAD IN LAYER   3 AT END OF TIME STEP  86 IN STRESS PERIOD    4
  ---------------------------------------------------------------------------

            1           2           3           4           5           6           7           8           9          10
 ........................................................................................................................
   1    9.998       9.040       8.053       7.036       5.998       4.950       3.853       2.666       1.376      4.0810E-03
   2    9.998       8.999       7.964       6.891       5.816       4.797       3.750       2.607       1.350      4.0027E-03
   3    9.997       8.924       7.790       6.579       5.382       4.469       3.551       2.500       1.304      3.8683E-03
   4    9.997       8.838       7.561       6.076       4.458       3.942       3.294       2.382       1.258      3.7299E-03
   5    9.997       8.790       7.398       5.511       2.307       3.349       3.114       2.321       1.237      3.6700E-03
   6    9.997       8.847       7.577       6.099       4.484       3.967       3.315       2.398       1.266      3.7544E-03
   7    9.997       8.944       7.827       6.630       5.440       4.526       3.599       2.535       1.323      3.9225E-03
   8    9.998       9.034       8.032       6.983       5.921       4.899       3.835       2.667       1.381      4.0970E-03
   9    9.998       9.097       8.165       7.190       6.174       5.119       3.992       2.763       1.426      4.2296E-03
  10    9.998       9.129       8.229       7.285       6.285       5.220       4.068       2.812       1.450      4.2994E-03
1
              HEAD IN LAYER   4 AT END OF TIME STEP  86 IN STRESS PERIOD    4
  ---------------------------------------------------------------------------

            1           2           3           4           5           6           7           8           9          10
 ........................................................................................................................
   1    9.998       9.038       8.051       7.032       5.994       4.946       3.849       2.662       1.374      4.1055E-03
   2    9.998       8.997       7.961       6.887       5.812       4.793       3.746       2.603       1.347      4.0267E-03
   3    9.997       8.923       7.787       6.575       5.378       4.465       3.547       2.497       1.302      3.8915E-03
   4    9.997       8.836       7.558       6.072       4.459       3.938       3.290       2.379       1.255      3.7522E-03
   5    9.997       8.789       7.395       5.511       2.484       3.351       3.111       2.317       1.235      3.6920E-03
   6    9.997       8.845       7.574       6.095       4.485       3.964       3.311       2.394       1.264      3.7769E-03
   7    9.997       8.943       7.825       6.627       5.436       4.522       3.595       2.532       1.320      3.9462E-03
   8    9.998       9.033       8.029       6.980       5.917       4.895       3.831       2.664       1.379      4.1217E-03
   9    9.998       9.096       8.163       7.186       6.170       5.115       3.988       2.759       1.424      4.2553E-03
  10    9.998       9.127       8.227       7.281       6.281       5.216       4.064       2.808       1.447      4.3255E-03

 HEAD WILL BE SAVED ON UNIT   51 AT END OF TIME STEP   86, STRESS PERIOD    4

 DRAWDOWN WILL BE SAVED ON UNIT   52 AT END OF TIME STEP   86, STRESS PERIOD    4
1
  VOLUMETRIC BUDGET FOR ENTIRE MODEL AT END OF TIME STEP   86, STRESS PERIOD   4
  ------------------------------------------------------------------------------

     CUMULATIVE VOLUMES      L**3       RATES FOR THIS TIME STEP      L**3/T
     ------------------                 ------------------------

           IN:                                      IN:
           ---                                      ---
             STORAGE =      514439.3438               STORAGE =         562.6055
       CONSTANT HEAD =           0.0000         CONSTANT HEAD =           0.0000
               WELLS =           0.0000                 WELLS =           0.0000
     HEAD DEP BOUNDS =       72602.5078       HEAD DEP BOUNDS =         612.9738

            TOTAL IN =      587041.8750              TOTAL IN =        1175.5793

          OUT:                                     OUT:
          ----                                     ----
             STORAGE =           0.0000               STORAGE =           0.0000
       CONSTANT HEAD =           0.0000         CONSTANT HEAD =           0.0000
               WELLS =       93000.0000                 WELLS =         500.0000
     HEAD DEP BOUNDS =      494043.9375       HEAD DEP BOUNDS =         675.5860

           TOTAL OUT =      587043.9375             TOTAL OUT =        1175.5859

            IN - OUT =          -2.0625              IN - OUT =      -6.5918E-03

 PERCENT DISCREPANCY =          -0.00     PERCENT DISCREPANCY =          -0.00






         TIME SUMMARY AT END OF TIME STEP   86 IN STRESS PERIOD    4
                    SECONDS     MINUTES      HOURS       DAYS        YEARS
                    -----------------------------------------------------------
   TIME STEP LENGTH  86400.      1440.0      24.000      1.0000     2.73785E-03
 STRESS PERIOD TIME 7.43040E+06 1.23840E+05  2064.0      86.000     0.23546    
         TOTAL TIME 2.47968E+07 4.13280E+05  6888.0      287.00     0.78576    
1
 
 SOLVING FOR HEAD 

 OUTPUT CONTROL FOR STRESS PERIOD    4   TIME STEP   87
    SAVE HEAD FOR ALL LAYERS
    SAVE DRAWDOWN FOR ALL LAYERS
    SAVE BUDGET
    PRINT HEAD FOR ALL LAYERS
    PRINT BUDGET
 UBDSV1 SAVING "         STORAGE" ON UNIT  53 AT TIME STEP 87, STRESS PERIOD   4
 UBDSV2 SAVING "   CONSTANT HEAD" ON UNIT  53 AT TIME STEP 87, STRESS PERIOD   4
 UBDSV1 SAVING "FLOW RIGHT FACE " ON UNIT  53 AT TIME STEP 87, STRESS PERIOD   4
 UBDSV1 SAVING "FLOW FRONT FACE " ON UNIT  53 AT TIME STEP 87, STRESS PERIOD   4
 UBDSV1 SAVING "FLOW LOWER FACE " ON UNIT  53 AT TIME STEP 87, STRESS PERIOD   4
1
              HEAD IN LAYER   1 AT END OF TIME STEP  87 IN STRESS PERIOD    4
  ---------------------------------------------------------------------------

            1           2           3           4           5           6           7           8           9          10
 ........................................................................................................................
   1    9.998       9.044       8.060       7.044       6.008       4.960       3.862       2.674       1.382      1.9220E-03
   2    9.998       9.003       7.971       6.900       5.826       4.807       3.759       2.615       1.356      1.8828E-03
   3    9.997       8.929       7.797       6.589       5.393       4.479       3.560       2.508       1.310      1.8154E-03
   4    9.997       8.843       7.569       6.087       4.460       3.951       3.302       2.389       1.263      1.7465E-03
   5    9.997       8.796       7.408       5.519       1.498       3.344       3.122       2.328       1.243      1.7167E-03
   6    9.997       8.852       7.586       6.110       4.486       3.976       3.324       2.405       1.271      1.7587E-03
   7    9.997       8.949       7.835       6.640       5.451       4.536       3.608       2.543       1.328      1.8424E-03
   8    9.998       9.038       8.038       6.992       5.930       4.908       3.844       2.675       1.387      1.9297E-03
   9    9.998       9.101       8.171       7.198       6.183       5.128       4.001       2.771       1.432      1.9965E-03
  10    9.998       9.132       8.235       7.292       6.294       5.230       4.077       2.820       1.456      2.0317E-03
1
              HEAD IN LAYER   2 AT END OF TIME STEP  87 IN STRESS PERIOD    4
  ---------------------------------------------------------------------------

            1           2           3           4           5           6           7           8           9          10
 ........................................................................................................................
   1    9.998       9.040       8.053       7.035       5.997       4.950       3.852       2.666       1.377      3.7854E-03
   2    9.998       8.999       7.964       6.890       5.815       4.797       3.750       2.607       1.351      3.7123E-03
   3    9.997       8.925       7.789       6.579       5.381       4.469       3.550       2.501       1.305      3.5869E-03
   4    9.997       8.838       7.561       6.076       4.450       3.941       3.293       2.382       1.258      3.4578E-03
   5    9.997       8.791       7.399       5.506       1.926       3.338       3.113       2.321       1.238      3.4018E-03
   6    9.997       8.847       7.578       6.099       4.476       3.966       3.315       2.398       1.267      3.4806E-03
   7    9.997       8.944       7.827       6.630       5.440       4.525       3.599       2.535       1.324      3.6375E-03
   8    9.998       9.034       8.031       6.982       5.920       4.898       3.835       2.668       1.383      3.8003E-03
   9    9.998       9.097       8.164       7.189       6.173       5.118       3.992       2.763       1.427      3.9242E-03
  10    9.998       9.129       8.229       7.284       6.284       5.219       4.068       2.812       1.451      3.9893E-03
1
              HEAD IN LAYER   3 AT END OF TIME STEP  87 IN STRESS PERIOD    4
  ---------------------------------------------------------------------------

            1           2           3           4           5           6           7           8           9          10
 ........................................................................................................................
   1    9.998       9.037       8.048       7.028       5.989       4.941       3.844       2.659       1.373      4.0704E-03
   2    9.997       8.996       7.958       6.883       5.807       4.788       3.741       2.600       1.346      3.9920E-03
   3    9.997       8.921       7.784       6.571       5.373       4.460       3.542       2.494       1.301      3.8576E-03
   4    9.997       8.835       7.555       6.068       4.448       3.932       3.285       2.375       1.254      3.7192E-03
   5    9.997       8.787       7.393       5.503       2.297       3.339       3.106       2.314       1.234      3.6593E-03
   6    9.997       8.844       7.572       6.091       4.475       3.958       3.307       2.391       1.262      3.7438E-03
   7    9.997       8.941       7.822       6.623       5.431       4.517       3.591       2.529       1.319      3.9122E-03
   8    9.998       9.031       8.026       6.976       5.912       4.890       3.827       2.661       1.378      4.0868E-03
   9    9.998       9.094       8.160       7.182       6.165       5.110       3.984       2.757       1.423      4.2197E-03
  10    9.998       9.126       8.224       7.277       6.277       5.211       4.060       2.806       1.446      4.2895E-03
1
              HEAD IN LAYER   4 AT END OF TIME STEP  87 IN STRESS PERIOD    4
  ---------------------------------------------------------------------------

            1           2           3           4           5           6           7           8           9          10
 ........................................................................................................................
   1    9.998       9.035       8.045       7.024       5.985       4.937       3.840       2.656       1.370      4.0948E-03
   2    9.997       8.995       7.956       6.879       5.803       4.784       3.737       2.597       1.344      4.0160E-03
   3    9.997       8.920       7.781       6.567       5.368       4.455       3.538       2.491       1.298      3.8807E-03
   4    9.997       8.833       7.552       6.064       4.449       3.928       3.281       2.372       1.252      3.7414E-03
   5    9.997       8.786       7.389       5.503       2.474       3.342       3.102       2.311       1.232      3.6812E-03
   6    9.997       8.842       7.569       6.087       4.476       3.954       3.303       2.388       1.260      3.7663E-03
   7    9.997       8.940       7.819       6.619       5.427       4.513       3.587       2.526       1.317      3.9358E-03
   8    9.998       9.030       8.024       6.972       5.908       4.886       3.823       2.658       1.376      4.1116E-03
   9    9.998       9.093       8.157       7.179       6.161       5.106       3.980       2.753       1.421      4.2453E-03
  10    9.998       9.125       8.222       7.274       6.273       5.207       4.056       2.802       1.444      4.3156E-03

 HEAD WILL BE SAVED ON UNIT   51 AT END OF TIME STEP   87, STRESS PERIOD    4

 DRAWDOWN WILL BE SAVED ON UNIT   52 AT END OF TIME STEP   87, STRESS PERIOD    4
1
  VOLUMETRIC BUDGET FOR ENTIRE MODEL AT END OF TIME STEP   87, STRESS PERIOD   4
  ------------------------------------------------------------------------------

     CUMULATIVE VOLUMES      L**3       RATES FOR THIS TIME STEP      L**3/T
     ------------------                 ------------------------

           IN:                                      IN:
           ---                                      ---
             STORAGE =      514998.4375               STORAGE =         559.1061
       CONSTANT HEAD =           0.0000         CONSTANT HEAD =           0.0000
               WELLS =           0.0000                 WELLS =           0.0000
     HEAD DEP BOUNDS =       73217.1953       HEAD DEP BOUNDS =         614.6879

            TOTAL IN =      588215.6250              TOTAL IN =        1173.7939

          OUT:                                     OUT:
          ----                                     ----
             STORAGE =           0.0000               STORAGE =           0.0000
       CONSTANT HEAD =           0.0000         CONSTANT HEAD =           0.0000
               WELLS =       93500.0000                 WELLS =         500.0000
     HEAD DEP BOUNDS =      494717.7188       HEAD DEP BOUNDS =         673.7899

           TOTAL OUT =      588217.7500             TOTAL OUT =        1173.7899

            IN - OUT =          -2.1250              IN - OUT =       4.0283E-03

 PERCENT DISCREPANCY =          -0.00     PERCENT DISCREPANCY =           0.00






         TIME SUMMARY AT END OF TIME STEP   87 IN STRESS PERIOD    4
                    SECONDS     MINUTES      HOURS       DAYS        YEARS
                    -----------------------------------------------------------
   TIME STEP LENGTH  86400.      1440.0      24.000      1.0000     2.73785E-03
 STRESS PERIOD TIME 7.51680E+06 1.25280E+05  2088.0      87.000     0.23819    
         TOTAL TIME 2.48832E+07 4.14720E+05  6912.0      288.00     0.78850    
1
 
 SOLVING FOR HEAD 

 OUTPUT CONTROL FOR STRESS PERIOD    4   TIME STEP   88
    SAVE HEAD FOR ALL LAYERS
    SAVE DRAWDOWN FOR ALL LAYERS
    SAVE BUDGET
    PRINT HEAD FOR ALL LAYERS
    PRINT BUDGET
 UBDSV1 SAVING "         STORAGE" ON UNIT  53 AT TIME STEP 88, STRESS PERIOD   4
 UBDSV2 SAVING "   CONSTANT HEAD" ON UNIT  53 AT TIME STEP 88, STRESS PERIOD   4
 UBDSV1 SAVING "FLOW RIGHT FACE " ON UNIT  53 AT TIME STEP 88, STRESS PERIOD   4
 UBDSV1 SAVING "FLOW FRONT FACE " ON UNIT  53 AT TIME STEP 88, STRESS PERIOD   4
 UBDSV1 SAVING "FLOW LOWER FACE " ON UNIT  53 AT TIME STEP 88, STRESS PERIOD   4
1
              HEAD IN LAYER   1 AT END OF TIME STEP  88 IN STRESS PERIOD    4
  ---------------------------------------------------------------------------

            1           2           3           4           5           6           7           8           9          10
 ........................................................................................................................
   1    9.998       9.041       8.054       7.036       5.999       4.951       3.854       2.667       1.379      1.9166E-03
   2    9.998       9.000       7.965       6.892       5.817       4.798       3.751       2.608       1.352      1.8774E-03
   3    9.997       8.926       7.791       6.581       5.383       4.470       3.551       2.502       1.306      1.8101E-03
   4    9.997       8.840       7.563       6.079       4.450       3.941       3.293       2.383       1.260      1.7411E-03
   5    9.997       8.793       7.402       5.511       1.488       3.334       3.113       2.321       1.239      1.7113E-03
   6    9.997       8.849       7.580       6.102       4.476       3.967       3.315       2.398       1.268      1.7534E-03
   7    9.997       8.946       7.829       6.632       5.442       4.527       3.600       2.537       1.325      1.8373E-03
   8    9.998       9.036       8.033       6.984       5.922       4.899       3.836       2.669       1.384      1.9247E-03
   9    9.998       9.098       8.166       7.190       6.174       5.119       3.993       2.765       1.429      1.9915E-03
  10    9.998       9.130       8.230       7.285       6.286       5.221       4.069       2.814       1.453      2.0266E-03
1
              HEAD IN LAYER   2 AT END OF TIME STEP  88 IN STRESS PERIOD    4
  ---------------------------------------------------------------------------

            1           2           3           4           5           6           7           8           9          10
 ........................................................................................................................
   1    9.998       9.037       8.047       7.027       5.988       4.940       3.844       2.659       1.374      3.7754E-03
   2    9.998       8.996       7.958       6.882       5.806       4.787       3.741       2.600       1.347      3.7023E-03
   3    9.997       8.922       7.784       6.571       5.372       4.459       3.542       2.494       1.302      3.5769E-03
   4    9.997       8.835       7.555       6.068       4.440       3.931       3.284       2.375       1.255      3.4477E-03
   5    9.997       8.788       7.393       5.498       1.916       3.328       3.104       2.314       1.234      3.3919E-03
   6    9.997       8.844       7.572       6.092       4.467       3.957       3.306       2.391       1.263      3.4708E-03
   7    9.997       8.942       7.822       6.623       5.431       4.516       3.590       2.529       1.320      3.6278E-03
   8    9.998       9.031       8.026       6.975       5.911       4.889       3.827       2.662       1.379      3.7909E-03
   9    9.998       9.094       8.159       7.182       6.164       5.109       3.984       2.757       1.424      3.9150E-03
  10    9.998       9.126       8.223       7.277       6.276       5.211       4.060       2.806       1.448      3.9801E-03
1
              HEAD IN LAYER   3 AT END OF TIME STEP  88 IN STRESS PERIOD    4
  ---------------------------------------------------------------------------

            1           2           3           4           5           6           7           8           9          10
 ........................................................................................................................
   1    9.998       9.034       8.042       7.020       5.980       4.932       3.836       2.653       1.369      4.0598E-03
   2    9.997       8.993       7.953       6.875       5.798       4.779       3.733       2.593       1.343      3.9814E-03
   3    9.997       8.918       7.778       6.563       5.363       4.450       3.534       2.487       1.297      3.8469E-03
   4    9.997       8.832       7.549       6.060       4.439       3.923       3.276       2.369       1.250      3.7085E-03
   5    9.997       8.784       7.387       5.495       2.287       3.330       3.097       2.308       1.230      3.6487E-03
   6    9.997       8.841       7.566       6.083       4.465       3.949       3.298       2.385       1.259      3.7334E-03
   7    9.997       8.938       7.816       6.615       5.422       4.508       3.583       2.523       1.316      3.9019E-03
   8    9.998       9.029       8.021       6.968       5.903       4.881       3.819       2.655       1.375      4.0767E-03
   9    9.998       9.092       8.154       7.175       6.157       5.101       3.976       2.751       1.419      4.2098E-03
  10    9.998       9.123       8.219       7.270       6.268       5.203       4.052       2.800       1.443      4.2797E-03
1
              HEAD IN LAYER   4 AT END OF TIME STEP  88 IN STRESS PERIOD    4
  ---------------------------------------------------------------------------

            1           2           3           4           5           6           7           8           9          10
 ........................................................................................................................
   1    9.998       9.032       8.040       7.016       5.976       4.927       3.832       2.649       1.367      4.0842E-03
   2    9.997       8.992       7.950       6.871       5.794       4.774       3.729       2.590       1.340      4.0053E-03
   3    9.997       8.917       7.775       6.559       5.359       4.446       3.530       2.484       1.295      3.8700E-03
   4    9.997       8.830       7.546       6.056       4.440       3.919       3.273       2.365       1.248      3.7307E-03
   5    9.997       8.783       7.384       5.495       2.464       3.332       3.093       2.304       1.228      3.6705E-03
   6    9.997       8.839       7.563       6.080       4.467       3.945       3.295       2.381       1.257      3.7558E-03
   7    9.997       8.937       7.814       6.612       5.418       4.504       3.579       2.519       1.313      3.9254E-03
   8    9.998       9.027       8.018       6.965       5.899       4.877       3.815       2.652       1.372      4.1015E-03
   9    9.998       9.090       8.152       7.172       6.153       5.097       3.972       2.747       1.417      4.2354E-03
  10    9.998       9.122       8.216       7.267       6.265       5.199       4.049       2.796       1.441      4.3058E-03

 HEAD WILL BE SAVED ON UNIT   51 AT END OF TIME STEP   88, STRESS PERIOD    4

 DRAWDOWN WILL BE SAVED ON UNIT   52 AT END OF TIME STEP   88, STRESS PERIOD    4
1
  VOLUMETRIC BUDGET FOR ENTIRE MODEL AT END OF TIME STEP   88, STRESS PERIOD   4
  ------------------------------------------------------------------------------

     CUMULATIVE VOLUMES      L**3       RATES FOR THIS TIME STEP      L**3/T
     ------------------                 ------------------------

           IN:                                      IN:
           ---                                      ---
             STORAGE =      515554.0625               STORAGE =         555.6154
       CONSTANT HEAD =           0.0000         CONSTANT HEAD =           0.0000
               WELLS =           0.0000                 WELLS =           0.0000
     HEAD DEP BOUNDS =       73833.5859       HEAD DEP BOUNDS =         616.3878

            TOTAL IN =      589387.6250              TOTAL IN =        1172.0032

          OUT:                                     OUT:
          ----                                     ----
             STORAGE =           0.0000               STORAGE =           0.0000
       CONSTANT HEAD =           0.0000         CONSTANT HEAD =           0.0000
               WELLS =       94000.0000                 WELLS =         500.0000
     HEAD DEP BOUNDS =      495389.7188       HEAD DEP BOUNDS =         672.0006

           TOTAL OUT =      589389.7500             TOTAL OUT =        1172.0006

            IN - OUT =          -2.1250              IN - OUT =       2.5635E-03

 PERCENT DISCREPANCY =          -0.00     PERCENT DISCREPANCY =           0.00






         TIME SUMMARY AT END OF TIME STEP   88 IN STRESS PERIOD    4
                    SECONDS     MINUTES      HOURS       DAYS        YEARS
                    -----------------------------------------------------------
   TIME STEP LENGTH  86400.      1440.0      24.000      1.0000     2.73785E-03
 STRESS PERIOD TIME 7.60320E+06 1.26720E+05  2112.0      88.000     0.24093    
         TOTAL TIME 2.49696E+07 4.16160E+05  6936.0      289.00     0.79124    
1
 
 SOLVING FOR HEAD 

 OUTPUT CONTROL FOR STRESS PERIOD    4   TIME STEP   89
    SAVE HEAD FOR ALL LAYERS
    SAVE DRAWDOWN FOR ALL LAYERS
    SAVE BUDGET
    PRINT HEAD FOR ALL LAYERS
    PRINT BUDGET
 UBDSV1 SAVING "         STORAGE" ON UNIT  53 AT TIME STEP 89, STRESS PERIOD   4
 UBDSV2 SAVING "   CONSTANT HEAD" ON UNIT  53 AT TIME STEP 89, STRESS PERIOD   4
 UBDSV1 SAVING "FLOW RIGHT FACE " ON UNIT  53 AT TIME STEP 89, STRESS PERIOD   4
 UBDSV1 SAVING "FLOW FRONT FACE " ON UNIT  53 AT TIME STEP 89, STRESS PERIOD   4
 UBDSV1 SAVING "FLOW LOWER FACE " ON UNIT  53 AT TIME STEP 89, STRESS PERIOD   4
1
              HEAD IN LAYER   1 AT END OF TIME STEP  89 IN STRESS PERIOD    4
  ---------------------------------------------------------------------------

            1           2           3           4           5           6           7           8           9          10
 ........................................................................................................................
   1    9.998       9.038       8.049       7.029       5.990       4.942       3.845       2.661       1.375      1.9113E-03
   2    9.998       8.997       7.960       6.884       5.808       4.788       3.742       2.601       1.348      1.8721E-03
   3    9.997       8.923       7.786       6.573       5.374       4.460       3.543       2.495       1.303      1.8048E-03
   4    9.997       8.837       7.558       6.071       4.441       3.931       3.285       2.376       1.256      1.7358E-03
   5    9.997       8.790       7.397       5.503       1.478       3.325       3.105       2.315       1.235      1.7060E-03
   6    9.997       8.846       7.575       6.095       4.467       3.957       3.307       2.392       1.264      1.7482E-03
   7    9.997       8.943       7.824       6.625       5.433       4.517       3.591       2.530       1.321      1.8322E-03
   8    9.998       9.033       8.027       6.977       5.913       4.891       3.828       2.663       1.381      1.9196E-03
   9    9.998       9.096       8.161       7.183       6.166       5.111       3.985       2.759       1.426      1.9864E-03
  10    9.998       9.127       8.225       7.278       6.277       5.212       4.062       2.808       1.449      2.0216E-03
1
              HEAD IN LAYER   2 AT END OF TIME STEP  89 IN STRESS PERIOD    4
  ---------------------------------------------------------------------------

            1           2           3           4           5           6           7           8           9          10
 ........................................................................................................................
   1    9.998       9.034       8.042       7.019       5.979       4.931       3.835       2.653       1.370      3.7656E-03
   2    9.997       8.993       7.952       6.874       5.797       4.778       3.733       2.594       1.344      3.6925E-03
   3    9.997       8.919       7.778       6.563       5.363       4.450       3.533       2.488       1.298      3.5670E-03
   4    9.997       8.832       7.549       6.060       4.431       3.921       3.276       2.369       1.251      3.4378E-03
   5    9.997       8.785       7.388       5.490       1.906       3.319       3.096       2.307       1.231      3.3819E-03
   6    9.997       8.841       7.566       6.084       4.458       3.947       3.298       2.385       1.260      3.4610E-03
   7    9.997       8.939       7.816       6.615       5.422       4.507       3.582       2.523       1.317      3.6183E-03
   8    9.998       9.029       8.021       6.968       5.903       4.880       3.819       2.655       1.376      3.7815E-03
   9    9.998       9.092       8.154       7.174       6.156       5.101       3.976       2.751       1.421      3.9057E-03
  10    9.998       9.123       8.218       7.269       6.267       5.202       4.052       2.800       1.444      3.9710E-03
1
              HEAD IN LAYER   3 AT END OF TIME STEP  89 IN STRESS PERIOD    4
  ---------------------------------------------------------------------------

            1           2           3           4           5           6           7           8           9          10
 ........................................................................................................................
   1    9.998       9.031       8.036       7.012       5.971       4.922       3.827       2.646       1.365      4.0493E-03
   2    9.997       8.990       7.947       6.867       5.789       4.769       3.724       2.587       1.339      3.9709E-03
   3    9.997       8.915       7.772       6.555       5.354       4.441       3.525       2.481       1.294      3.8363E-03
   4    9.997       8.829       7.543       6.052       4.429       3.913       3.268       2.362       1.247      3.6979E-03
   5    9.997       8.782       7.381       5.487       2.277       3.320       3.088       2.301       1.227      3.6381E-03
   6    9.997       8.838       7.561       6.076       4.456       3.939       3.290       2.378       1.255      3.7229E-03
   7    9.997       8.936       7.811       6.608       5.414       4.499       3.574       2.516       1.312      3.8916E-03
   8    9.998       9.026       8.016       6.961       5.895       4.872       3.811       2.649       1.371      4.0667E-03
   9    9.998       9.089       8.149       7.168       6.148       5.093       3.968       2.745       1.416      4.2000E-03
  10    9.998       9.120       8.214       7.263       6.260       5.194       4.045       2.794       1.440      4.2700E-03
1
              HEAD IN LAYER   4 AT END OF TIME STEP  89 IN STRESS PERIOD    4
  ---------------------------------------------------------------------------

            1           2           3           4           5           6           7           8           9          10
 ........................................................................................................................
   1    9.998       9.029       8.034       7.009       5.967       4.918       3.823       2.643       1.363      4.0736E-03
   2    9.997       8.989       7.944       6.864       5.785       4.765       3.720       2.584       1.337      3.9947E-03
   3    9.997       8.914       7.770       6.552       5.350       4.437       3.521       2.478       1.291      3.8593E-03
   4    9.997       8.827       7.540       6.048       4.431       3.909       3.264       2.359       1.245      3.7201E-03
   5    9.997       8.780       7.378       5.487       2.454       3.322       3.085       2.298       1.224      3.6599E-03
   6    9.997       8.836       7.558       6.072       4.457       3.935       3.286       2.375       1.253      3.7453E-03
   7    9.997       8.934       7.808       6.604       5.409       4.495       3.571       2.513       1.310      3.9152E-03
   8    9.998       9.024       8.013       6.957       5.891       4.868       3.807       2.646       1.369      4.0914E-03
   9    9.998       9.088       8.147       7.165       6.144       5.089       3.964       2.741       1.414      4.2255E-03
  10    9.998       9.119       8.211       7.260       6.256       5.190       4.041       2.790       1.438      4.2961E-03

 HEAD WILL BE SAVED ON UNIT   51 AT END OF TIME STEP   89, STRESS PERIOD    4

 DRAWDOWN WILL BE SAVED ON UNIT   52 AT END OF TIME STEP   89, STRESS PERIOD    4
1
  VOLUMETRIC BUDGET FOR ENTIRE MODEL AT END OF TIME STEP   89, STRESS PERIOD   4
  ------------------------------------------------------------------------------

     CUMULATIVE VOLUMES      L**3       RATES FOR THIS TIME STEP      L**3/T
     ------------------                 ------------------------

           IN:                                      IN:
           ---                                      ---
             STORAGE =      516106.2188               STORAGE =         552.1451
       CONSTANT HEAD =           0.0000         CONSTANT HEAD =           0.0000
               WELLS =           0.0000                 WELLS =           0.0000
     HEAD DEP BOUNDS =       74451.6641       HEAD DEP BOUNDS =         618.0772

            TOTAL IN =      590557.8750              TOTAL IN =        1170.2224

          OUT:                                     OUT:
          ----                                     ----
             STORAGE =           0.0000               STORAGE =           0.0000
       CONSTANT HEAD =           0.0000         CONSTANT HEAD =           0.0000
               WELLS =       94500.0000                 WELLS =         500.0000
     HEAD DEP BOUNDS =      496059.9375       HEAD DEP BOUNDS =         670.2259

           TOTAL OUT =      590559.9375             TOTAL OUT =        1170.2258

            IN - OUT =          -2.0625              IN - OUT =      -3.4180E-03

 PERCENT DISCREPANCY =          -0.00     PERCENT DISCREPANCY =          -0.00






         TIME SUMMARY AT END OF TIME STEP   89 IN STRESS PERIOD    4
                    SECONDS     MINUTES      HOURS       DAYS        YEARS
                    -----------------------------------------------------------
   TIME STEP LENGTH  86400.      1440.0      24.000      1.0000     2.73785E-03
 STRESS PERIOD TIME 7.68960E+06 1.28160E+05  2136.0      89.000     0.24367    
         TOTAL TIME 2.50560E+07 4.17600E+05  6960.0      290.00     0.79398    
1
 
 SOLVING FOR HEAD 

 OUTPUT CONTROL FOR STRESS PERIOD    4   TIME STEP   90
    SAVE HEAD FOR ALL LAYERS
    SAVE DRAWDOWN FOR ALL LAYERS
    SAVE BUDGET
    PRINT HEAD FOR ALL LAYERS
    PRINT BUDGET
 UBDSV1 SAVING "         STORAGE" ON UNIT  53 AT TIME STEP 90, STRESS PERIOD   4
 UBDSV2 SAVING "   CONSTANT HEAD" ON UNIT  53 AT TIME STEP 90, STRESS PERIOD   4
 UBDSV1 SAVING "FLOW RIGHT FACE " ON UNIT  53 AT TIME STEP 90, STRESS PERIOD   4
 UBDSV1 SAVING "FLOW FRONT FACE " ON UNIT  53 AT TIME STEP 90, STRESS PERIOD   4
 UBDSV1 SAVING "FLOW LOWER FACE " ON UNIT  53 AT TIME STEP 90, STRESS PERIOD   4
1
              HEAD IN LAYER   1 AT END OF TIME STEP  90 IN STRESS PERIOD    4
  ---------------------------------------------------------------------------

            1           2           3           4           5           6           7           8           9          10
 ........................................................................................................................
   1    9.998       9.035       8.043       7.021       5.981       4.932       3.837       2.654       1.371      1.9060E-03
   2    9.998       8.995       7.954       6.876       5.799       4.779       3.734       2.595       1.345      1.8667E-03
   3    9.997       8.920       7.780       6.565       5.365       4.451       3.534       2.489       1.299      1.7996E-03
   4    9.997       8.834       7.552       6.063       4.431       3.922       3.276       2.369       1.252      1.7305E-03
   5    9.997       8.787       7.391       5.495       1.468       3.315       3.096       2.308       1.232      1.7008E-03
   6    9.997       8.843       7.569       6.087       4.458       3.948       3.298       2.385       1.261      1.7429E-03
   7    9.997       8.940       7.818       6.617       5.424       4.508       3.583       2.524       1.318      1.8269E-03
   8    9.998       9.030       8.022       6.969       5.904       4.882       3.820       2.657       1.377      1.9146E-03
   9    9.998       9.093       8.155       7.176       6.157       5.102       3.977       2.753       1.422      1.9815E-03
  10    9.998       9.124       8.220       7.271       6.269       5.204       4.054       2.802       1.446      2.0167E-03
1
              HEAD IN LAYER   2 AT END OF TIME STEP  90 IN STRESS PERIOD    4
  ---------------------------------------------------------------------------

            1           2           3           4           5           6           7           8           9          10
 ........................................................................................................................
   1    9.998       9.031       8.036       7.011       5.970       4.922       3.827       2.646       1.366      3.7558E-03
   2    9.997       8.990       7.947       6.867       5.788       4.768       3.724       2.587       1.340      3.6826E-03
   3    9.997       8.916       7.772       6.555       5.354       4.440       3.525       2.481       1.294      3.5571E-03
   4    9.997       8.829       7.544       6.052       4.422       3.912       3.267       2.362       1.248      3.4279E-03
   5    9.997       8.782       7.382       5.482       1.896       3.309       3.087       2.301       1.227      3.3721E-03
   6    9.997       8.838       7.561       6.076       4.448       3.938       3.289       2.378       1.256      3.4513E-03
   7    9.997       8.936       7.811       6.607       5.413       4.498       3.574       2.517       1.313      3.6087E-03
   8    9.998       9.026       8.015       6.960       5.894       4.871       3.811       2.649       1.372      3.7722E-03
   9    9.998       9.089       8.149       7.167       6.147       5.092       3.968       2.745       1.417      3.8966E-03
  10    9.998       9.120       8.213       7.262       6.259       5.194       4.045       2.794       1.441      3.9620E-03
1
              HEAD IN LAYER   3 AT END OF TIME STEP  90 IN STRESS PERIOD    4
  ---------------------------------------------------------------------------

            1           2           3           4           5           6           7           8           9          10
 ........................................................................................................................
   1    9.998       9.028       8.031       7.004       5.962       4.913       3.819       2.640       1.362      4.0388E-03
   2    9.997       8.987       7.941       6.860       5.780       4.760       3.716       2.581       1.335      3.9604E-03
   3    9.997       8.913       7.767       6.548       5.345       4.432       3.517       2.474       1.290      3.8258E-03
   4    9.997       8.826       7.538       6.044       4.420       3.904       3.259       2.356       1.243      3.6873E-03
   5    9.997       8.779       7.375       5.479       2.267       3.310       3.080       2.295       1.223      3.6276E-03
   6    9.997       8.835       7.555       6.068       4.447       3.930       3.282       2.372       1.252      3.7126E-03
   7    9.997       8.933       7.805       6.600       5.405       4.490       3.566       2.510       1.309      3.8815E-03
   8    9.998       9.023       8.010       6.953       5.886       4.863       3.803       2.643       1.368      4.0568E-03
   9    9.998       9.086       8.144       7.161       6.140       5.084       3.960       2.739       1.413      4.1902E-03
  10    9.998       9.118       8.208       7.256       6.252       5.186       4.037       2.788       1.437      4.2603E-03
1
              HEAD IN LAYER   4 AT END OF TIME STEP  90 IN STRESS PERIOD    4
  ---------------------------------------------------------------------------

            1           2           3           4           5           6           7           8           9          10
 ........................................................................................................................
   1    9.998       9.026       8.028       7.001       5.958       4.909       3.815       2.636       1.360      4.0631E-03
   2    9.997       8.986       7.939       6.856       5.776       4.756       3.712       2.577       1.333      3.9842E-03
   3    9.997       8.911       7.764       6.544       5.341       4.427       3.513       2.471       1.288      3.8488E-03
   4    9.997       8.824       7.535       6.040       4.421       3.900       3.256       2.352       1.241      3.7095E-03
   5    9.997       8.777       7.372       5.479       2.445       3.313       3.076       2.291       1.221      3.6494E-03
   6    9.997       8.833       7.552       6.064       4.448       3.926       3.278       2.369       1.250      3.7349E-03
   7    9.997       8.931       7.803       6.596       5.401       4.486       3.562       2.507       1.307      3.9050E-03
   8    9.998       9.022       8.008       6.950       5.882       4.859       3.799       2.640       1.366      4.0814E-03
   9    9.998       9.085       8.142       7.158       6.136       5.080       3.956       2.735       1.411      4.2157E-03
  10    9.998       9.116       8.206       7.253       6.248       5.182       4.033       2.784       1.434      4.2864E-03

 HEAD WILL BE SAVED ON UNIT   51 AT END OF TIME STEP   90, STRESS PERIOD    4

 DRAWDOWN WILL BE SAVED ON UNIT   52 AT END OF TIME STEP   90, STRESS PERIOD    4
1
  VOLUMETRIC BUDGET FOR ENTIRE MODEL AT END OF TIME STEP   90, STRESS PERIOD   4
  ------------------------------------------------------------------------------

     CUMULATIVE VOLUMES      L**3       RATES FOR THIS TIME STEP      L**3/T
     ------------------                 ------------------------

           IN:                                      IN:
           ---                                      ---
             STORAGE =      516654.9062               STORAGE =         548.7027
       CONSTANT HEAD =           0.0000         CONSTANT HEAD =           0.0000
               WELLS =           0.0000                 WELLS =           0.0000
     HEAD DEP BOUNDS =       75071.4219       HEAD DEP BOUNDS =         619.7563

            TOTAL IN =      591726.3125              TOTAL IN =        1168.4590

          OUT:                                     OUT:
          ----                                     ----
             STORAGE =           0.0000               STORAGE =           0.0000
       CONSTANT HEAD =           0.0000         CONSTANT HEAD =           0.0000
               WELLS =       95000.0000                 WELLS =         500.0000
     HEAD DEP BOUNDS =      496728.4062       HEAD DEP BOUNDS =         668.4600

           TOTAL OUT =      591728.3750             TOTAL OUT =        1168.4600

            IN - OUT =          -2.0625              IN - OUT =      -9.7656E-04

 PERCENT DISCREPANCY =          -0.00     PERCENT DISCREPANCY =          -0.00






         TIME SUMMARY AT END OF TIME STEP   90 IN STRESS PERIOD    4
                    SECONDS     MINUTES      HOURS       DAYS        YEARS
                    -----------------------------------------------------------
   TIME STEP LENGTH  86400.      1440.0      24.000      1.0000     2.73785E-03
 STRESS PERIOD TIME 7.77600E+06 1.29600E+05  2160.0      90.000     0.24641    
         TOTAL TIME 2.51424E+07 4.19040E+05  6984.0      291.00     0.79671    
1
 
 SOLVING FOR HEAD 

 OUTPUT CONTROL FOR STRESS PERIOD    4   TIME STEP   91
    SAVE HEAD FOR ALL LAYERS
    SAVE DRAWDOWN FOR ALL LAYERS
    SAVE BUDGET
    PRINT HEAD FOR ALL LAYERS
    PRINT BUDGET
 UBDSV1 SAVING "         STORAGE" ON UNIT  53 AT TIME STEP 91, STRESS PERIOD   4
 UBDSV2 SAVING "   CONSTANT HEAD" ON UNIT  53 AT TIME STEP 91, STRESS PERIOD   4
 UBDSV1 SAVING "FLOW RIGHT FACE " ON UNIT  53 AT TIME STEP 91, STRESS PERIOD   4
 UBDSV1 SAVING "FLOW FRONT FACE " ON UNIT  53 AT TIME STEP 91, STRESS PERIOD   4
 UBDSV1 SAVING "FLOW LOWER FACE " ON UNIT  53 AT TIME STEP 91, STRESS PERIOD   4
1
              HEAD IN LAYER   1 AT END OF TIME STEP  91 IN STRESS PERIOD    4
  ---------------------------------------------------------------------------

            1           2           3           4           5           6           7           8           9          10
 ........................................................................................................................
   1    9.998       9.032       8.038       7.013       5.972       4.923       3.828       2.648       1.368      1.9008E-03
   2    9.998       8.992       7.948       6.868       5.790       4.770       3.725       2.588       1.341      1.8614E-03
   3    9.997       8.917       7.774       6.557       5.356       4.441       3.526       2.482       1.296      1.7943E-03
   4    9.997       8.831       7.546       6.056       4.422       3.912       3.268       2.363       1.249      1.7253E-03
   5    9.997       8.784       7.385       5.487       1.458       3.306       3.087       2.302       1.228      1.6955E-03
   6    9.997       8.840       7.563       6.079       4.449       3.938       3.290       2.379       1.257      1.7378E-03
   7    9.997       8.937       7.813       6.609       5.415       4.499       3.575       2.518       1.314      1.8219E-03
   8    9.998       9.027       8.017       6.962       5.896       4.873       3.812       2.651       1.374      1.9096E-03
   9    9.998       9.090       8.150       7.169       6.149       5.093       3.969       2.747       1.419      1.9765E-03
  10    9.998       9.122       8.214       7.264       6.261       5.195       4.046       2.796       1.443      2.0118E-03
1
              HEAD IN LAYER   2 AT END OF TIME STEP  91 IN STRESS PERIOD    4
  ---------------------------------------------------------------------------

            1           2           3           4           5           6           7           8           9          10
 ........................................................................................................................
   1    9.998       9.028       8.030       7.004       5.961       4.912       3.819       2.640       1.363      3.7460E-03
   2    9.997       8.987       7.941       6.859       5.779       4.759       3.716       2.581       1.336      3.6728E-03
   3    9.997       8.913       7.767       6.547       5.345       4.431       3.516       2.475       1.291      3.5473E-03
   4    9.997       8.826       7.538       6.045       4.412       3.902       3.259       2.356       1.244      3.4181E-03
   5    9.997       8.779       7.376       5.474       1.886       3.300       3.079       2.295       1.224      3.3623E-03
   6    9.997       8.835       7.555       6.068       4.439       3.929       3.281       2.372       1.253      3.4416E-03
   7    9.997       8.933       7.805       6.600       5.404       4.489       3.566       2.510       1.310      3.5993E-03
   8    9.998       9.023       8.010       6.953       5.885       4.863       3.803       2.643       1.369      3.7629E-03
   9    9.998       9.086       8.144       7.160       6.139       5.083       3.960       2.739       1.414      3.8874E-03
  10    9.998       9.118       8.208       7.255       6.251       5.185       4.037       2.788       1.438      3.9529E-03
1
              HEAD IN LAYER   3 AT END OF TIME STEP  91 IN STRESS PERIOD    4
  ---------------------------------------------------------------------------

            1           2           3           4           5           6           7           8           9          10
 ........................................................................................................................
   1    9.998       9.025       8.025       6.997       5.953       4.904       3.811       2.633       1.358      4.0284E-03
   2    9.997       8.984       7.936       6.852       5.771       4.751       3.708       2.574       1.332      3.9500E-03
   3    9.997       8.910       7.761       6.540       5.336       4.422       3.508       2.468       1.286      3.8153E-03
   4    9.997       8.823       7.532       6.037       4.411       3.894       3.251       2.349       1.240      3.6769E-03
   5    9.997       8.776       7.370       5.471       2.257       3.301       3.072       2.288       1.220      3.6172E-03
   6    9.997       8.832       7.549       6.060       4.438       3.921       3.273       2.365       1.248      3.7023E-03
   7    9.997       8.930       7.800       6.593       5.396       4.481       3.558       2.504       1.305      3.8714E-03
   8    9.998       9.020       8.005       6.946       5.878       4.855       3.795       2.637       1.365      4.0469E-03
   9    9.998       9.084       8.139       7.154       6.132       5.075       3.953       2.733       1.410      4.1805E-03
  10    9.998       9.115       8.203       7.249       6.244       5.177       4.029       2.782       1.433      4.2507E-03
1
              HEAD IN LAYER   4 AT END OF TIME STEP  91 IN STRESS PERIOD    4
  ---------------------------------------------------------------------------

            1           2           3           4           5           6           7           8           9          10
 ........................................................................................................................
   1    9.998       9.023       8.023       6.993       5.949       4.900       3.807       2.630       1.356      4.0527E-03
   2    9.997       8.983       7.933       6.848       5.767       4.746       3.704       2.571       1.330      3.9737E-03
   3    9.997       8.908       7.758       6.536       5.332       4.418       3.504       2.465       1.284      3.8383E-03
   4    9.997       8.821       7.529       6.033       4.412       3.890       3.247       2.346       1.238      3.6990E-03
   5    9.997       8.774       7.367       5.471       2.435       3.303       3.068       2.285       1.217      3.6390E-03
   6    9.997       8.830       7.547       6.056       4.439       3.917       3.270       2.362       1.246      3.7246E-03
   7    9.997       8.928       7.797       6.589       5.392       4.477       3.554       2.501       1.303      3.8948E-03
   8    9.998       9.019       8.003       6.943       5.874       4.851       3.791       2.633       1.362      4.0715E-03
   9    9.998       9.082       8.136       7.150       6.128       5.071       3.949       2.730       1.407      4.2060E-03
  10    9.998       9.114       8.201       7.246       6.240       5.173       4.026       2.779       1.431      4.2767E-03

 HEAD WILL BE SAVED ON UNIT   51 AT END OF TIME STEP   91, STRESS PERIOD    4

 DRAWDOWN WILL BE SAVED ON UNIT   52 AT END OF TIME STEP   91, STRESS PERIOD    4
1
  VOLUMETRIC BUDGET FOR ENTIRE MODEL AT END OF TIME STEP   91, STRESS PERIOD   4
  ------------------------------------------------------------------------------

     CUMULATIVE VOLUMES      L**3       RATES FOR THIS TIME STEP      L**3/T
     ------------------                 ------------------------

           IN:                                      IN:
           ---                                      ---
             STORAGE =      517200.1875               STORAGE =         545.2759
       CONSTANT HEAD =           0.0000         CONSTANT HEAD =           0.0000
               WELLS =           0.0000                 WELLS =           0.0000
     HEAD DEP BOUNDS =       75692.8359       HEAD DEP BOUNDS =         621.4117

            TOTAL IN =      592893.0000              TOTAL IN =        1166.6876

          OUT:                                     OUT:
          ----                                     ----
             STORAGE =           0.0000               STORAGE =           0.0000
       CONSTANT HEAD =           0.0000         CONSTANT HEAD =           0.0000
               WELLS =       95500.0000                 WELLS =         500.0000
     HEAD DEP BOUNDS =      497395.1250       HEAD DEP BOUNDS =         666.7066

           TOTAL OUT =      592895.1250             TOTAL OUT =        1166.7065

            IN - OUT =          -2.1250              IN - OUT =      -1.8921E-02

 PERCENT DISCREPANCY =          -0.00     PERCENT DISCREPANCY =          -0.00






         TIME SUMMARY AT END OF TIME STEP   91 IN STRESS PERIOD    4
                    SECONDS     MINUTES      HOURS       DAYS        YEARS
                    -----------------------------------------------------------
   TIME STEP LENGTH  86400.      1440.0      24.000      1.0000     2.73785E-03
 STRESS PERIOD TIME 7.86240E+06 1.31040E+05  2184.0      91.000     0.24914    
         TOTAL TIME 2.52288E+07 4.20480E+05  7008.0      292.00     0.79945    
1
 
 SOLVING FOR HEAD 

 OUTPUT CONTROL FOR STRESS PERIOD    4   TIME STEP   92
    SAVE HEAD FOR ALL LAYERS
    SAVE DRAWDOWN FOR ALL LAYERS
    SAVE BUDGET
    PRINT HEAD FOR ALL LAYERS
    PRINT BUDGET
 UBDSV1 SAVING "         STORAGE" ON UNIT  53 AT TIME STEP 92, STRESS PERIOD   4
 UBDSV2 SAVING "   CONSTANT HEAD" ON UNIT  53 AT TIME STEP 92, STRESS PERIOD   4
 UBDSV1 SAVING "FLOW RIGHT FACE " ON UNIT  53 AT TIME STEP 92, STRESS PERIOD   4
 UBDSV1 SAVING "FLOW FRONT FACE " ON UNIT  53 AT TIME STEP 92, STRESS PERIOD   4
 UBDSV1 SAVING "FLOW LOWER FACE " ON UNIT  53 AT TIME STEP 92, STRESS PERIOD   4
1
              HEAD IN LAYER   1 AT END OF TIME STEP  92 IN STRESS PERIOD    4
  ---------------------------------------------------------------------------

            1           2           3           4           5           6           7           8           9          10
 ........................................................................................................................
   1    9.998       9.029       8.032       7.005       5.963       4.914       3.820       2.641       1.364      1.8955E-03
   2    9.998       8.989       7.943       6.861       5.781       4.760       3.717       2.582       1.338      1.8562E-03
   3    9.997       8.914       7.769       6.549       5.346       4.432       3.517       2.476       1.292      1.7889E-03
   4    9.997       8.828       7.541       6.048       4.412       3.903       3.259       2.356       1.245      1.7201E-03
   5    9.997       8.781       7.380       5.479       1.448       3.296       3.079       2.295       1.225      1.6903E-03
   6    9.997       8.837       7.558       6.071       4.440       3.929       3.281       2.373       1.254      1.7325E-03
   7    9.997       8.935       7.807       6.602       5.406       4.490       3.567       2.511       1.311      1.8167E-03
   8    9.998       9.025       8.012       6.955       5.887       4.864       3.804       2.644       1.370      1.9045E-03
   9    9.998       9.087       8.145       7.162       6.141       5.085       3.962       2.741       1.416      1.9716E-03
  10    9.998       9.119       8.209       7.257       6.252       5.187       4.038       2.790       1.439      2.0071E-03
1
              HEAD IN LAYER   2 AT END OF TIME STEP  92 IN STRESS PERIOD    4
  ---------------------------------------------------------------------------

            1           2           3           4           5           6           7           8           9          10
 ........................................................................................................................
   1    9.998       9.025       8.025       6.996       5.952       4.903       3.810       2.634       1.359      3.7364E-03
   2    9.997       8.984       7.936       6.851       5.770       4.750       3.707       2.575       1.333      3.6631E-03
   3    9.997       8.910       7.761       6.539       5.335       4.421       3.508       2.468       1.287      3.5375E-03
   4    9.997       8.823       7.532       6.037       4.403       3.893       3.250       2.349       1.241      3.4084E-03
   5    9.997       8.776       7.371       5.466       1.876       3.290       3.070       2.288       1.220      3.3526E-03
   6    9.997       8.833       7.550       6.061       4.430       3.919       3.273       2.366       1.249      3.4320E-03
   7    9.997       8.930       7.800       6.592       5.395       4.480       3.558       2.504       1.306      3.5898E-03
   8    9.998       9.020       8.005       6.946       5.877       4.854       3.795       2.637       1.366      3.7537E-03
   9    9.998       9.084       8.138       7.153       6.131       5.075       3.952       2.733       1.411      3.8784E-03
  10    9.998       9.115       8.203       7.248       6.243       5.177       4.029       2.782       1.435      3.9440E-03
1
              HEAD IN LAYER   3 AT END OF TIME STEP  92 IN STRESS PERIOD    4
  ---------------------------------------------------------------------------

            1           2           3           4           5           6           7           8           9          10
 ........................................................................................................................
   1    9.998       9.022       8.020       6.989       5.944       4.895       3.802       2.627       1.355      4.0181E-03
   2    9.997       8.981       7.930       6.844       5.762       4.742       3.699       2.568       1.328      3.9396E-03
   3    9.997       8.907       7.756       6.532       5.327       4.413       3.500       2.462       1.283      3.8049E-03
   4    9.997       8.820       7.526       6.029       4.402       3.885       3.243       2.343       1.236      3.6665E-03
   5    9.997       8.773       7.364       5.463       2.248       3.291       3.063       2.282       1.216      3.6068E-03
   6    9.997       8.829       7.544       6.053       4.429       3.911       3.265       2.359       1.245      3.6920E-03
   7    9.997       8.927       7.795       6.585       5.387       4.472       3.550       2.498       1.302      3.8613E-03
   8    9.998       9.018       8.000       6.939       5.869       4.846       3.787       2.631       1.361      4.0371E-03
   9    9.998       9.081       8.134       7.147       6.123       5.067       3.945       2.727       1.406      4.1708E-03
  10    9.998       9.112       8.198       7.242       6.235       5.169       4.022       2.776       1.430      4.2412E-03
1
              HEAD IN LAYER   4 AT END OF TIME STEP  92 IN STRESS PERIOD    4
  ---------------------------------------------------------------------------

            1           2           3           4           5           6           7           8           9          10
 ........................................................................................................................
   1    9.998       9.021       8.017       6.986       5.940       4.891       3.798       2.624       1.353      4.0423E-03
   2    9.997       8.980       7.928       6.841       5.758       4.737       3.695       2.564       1.326      3.9634E-03
   3    9.997       8.905       7.753       6.528       5.323       4.409       3.496       2.458       1.281      3.8279E-03
   4    9.997       8.818       7.524       6.025       4.403       3.881       3.239       2.340       1.234      3.6885E-03
   5    9.997       8.771       7.361       5.464       2.425       3.294       3.060       2.279       1.214      3.6286E-03
   6    9.997       8.828       7.541       6.049       4.430       3.908       3.261       2.356       1.243      3.7143E-03
   7    9.997       8.926       7.792       6.582       5.383       4.468       3.546       2.495       1.300      3.8848E-03
   8    9.998       9.016       7.997       6.936       5.865       4.842       3.784       2.627       1.359      4.0616E-03
   9    9.998       9.080       8.131       7.143       6.120       5.063       3.941       2.724       1.404      4.1963E-03
  10    9.998       9.111       8.196       7.239       6.232       5.165       4.018       2.773       1.428      4.2671E-03

 HEAD WILL BE SAVED ON UNIT   51 AT END OF TIME STEP   92, STRESS PERIOD    4

 DRAWDOWN WILL BE SAVED ON UNIT   52 AT END OF TIME STEP   92, STRESS PERIOD    4
1
  VOLUMETRIC BUDGET FOR ENTIRE MODEL AT END OF TIME STEP   92, STRESS PERIOD   4
  ------------------------------------------------------------------------------

     CUMULATIVE VOLUMES      L**3       RATES FOR THIS TIME STEP      L**3/T
     ------------------                 ------------------------

           IN:                                      IN:
           ---                                      ---
             STORAGE =      517742.0625               STORAGE =         541.8817
       CONSTANT HEAD =           0.0000         CONSTANT HEAD =           0.0000
               WELLS =           0.0000                 WELLS =           0.0000
     HEAD DEP BOUNDS =       76315.9062       HEAD DEP BOUNDS =         623.0704

            TOTAL IN =      594058.0000              TOTAL IN =        1164.9521

          OUT:                                     OUT:
          ----                                     ----
             STORAGE =           0.0000               STORAGE =           0.0000
       CONSTANT HEAD =           0.0000         CONSTANT HEAD =           0.0000
               WELLS =       96000.0000                 WELLS =         500.0000
     HEAD DEP BOUNDS =      498060.0938       HEAD DEP BOUNDS =         664.9635

           TOTAL OUT =      594060.1250             TOTAL OUT =        1164.9635

            IN - OUT =          -2.1250              IN - OUT =      -1.1353E-02

 PERCENT DISCREPANCY =          -0.00     PERCENT DISCREPANCY =          -0.00






         TIME SUMMARY AT END OF TIME STEP   92 IN STRESS PERIOD    4
                    SECONDS     MINUTES      HOURS       DAYS        YEARS
                    -----------------------------------------------------------
   TIME STEP LENGTH  86400.      1440.0      24.000      1.0000     2.73785E-03
 STRESS PERIOD TIME 7.94880E+06 1.32480E+05  2208.0      92.000     0.25188    
         TOTAL TIME 2.53152E+07 4.21920E+05  7032.0      293.00     0.80219    
1
 
 SOLVING FOR HEAD 

 OUTPUT CONTROL FOR STRESS PERIOD    4   TIME STEP   93
    SAVE HEAD FOR ALL LAYERS
    SAVE DRAWDOWN FOR ALL LAYERS
    SAVE BUDGET
    PRINT HEAD FOR ALL LAYERS
    PRINT BUDGET
 UBDSV1 SAVING "         STORAGE" ON UNIT  53 AT TIME STEP 93, STRESS PERIOD   4
 UBDSV2 SAVING "   CONSTANT HEAD" ON UNIT  53 AT TIME STEP 93, STRESS PERIOD   4
 UBDSV1 SAVING "FLOW RIGHT FACE " ON UNIT  53 AT TIME STEP 93, STRESS PERIOD   4
 UBDSV1 SAVING "FLOW FRONT FACE " ON UNIT  53 AT TIME STEP 93, STRESS PERIOD   4
 UBDSV1 SAVING "FLOW LOWER FACE " ON UNIT  53 AT TIME STEP 93, STRESS PERIOD   4
1
              HEAD IN LAYER   1 AT END OF TIME STEP  93 IN STRESS PERIOD    4
  ---------------------------------------------------------------------------

            1           2           3           4           5           6           7           8           9          10
 ........................................................................................................................
   1    9.998       9.026       8.026       6.998       5.954       4.905       3.812       2.635       1.361      1.8903E-03
   2    9.998       8.986       7.937       6.853       5.772       4.751       3.708       2.576       1.334      1.8509E-03
   3    9.997       8.911       7.763       6.542       5.337       4.423       3.509       2.469       1.289      1.7838E-03
   4    9.997       8.825       7.535       6.040       4.403       3.893       3.251       2.350       1.242      1.7150E-03
   5    9.997       8.778       7.374       5.471       1.439       3.287       3.070       2.289       1.221      1.6851E-03
   6    9.997       8.834       7.552       6.064       4.431       3.920       3.273       2.366       1.250      1.7275E-03
   7    9.997       8.932       7.802       6.595       5.397       4.481       3.559       2.505       1.308      1.8117E-03
   8    9.998       9.022       8.006       6.947       5.879       4.855       3.796       2.638       1.367      1.8996E-03
   9    9.998       9.085       8.140       7.154       6.132       5.076       3.954       2.735       1.412      1.9668E-03
  10    9.998       9.116       8.204       7.250       6.244       5.178       4.031       2.784       1.436      2.0023E-03
1
              HEAD IN LAYER   2 AT END OF TIME STEP  93 IN STRESS PERIOD    4
  ---------------------------------------------------------------------------

            1           2           3           4           5           6           7           8           9          10
 ........................................................................................................................
   1    9.998       9.022       8.019       6.988       5.943       4.894       3.802       2.627       1.356      3.7267E-03
   2    9.997       8.981       7.930       6.844       5.761       4.741       3.699       2.568       1.329      3.6535E-03
   3    9.997       8.907       7.755       6.532       5.326       4.412       3.500       2.462       1.284      3.5279E-03
   4    9.997       8.821       7.527       6.029       4.394       3.884       3.242       2.343       1.237      3.3987E-03
   5    9.997       8.773       7.365       5.459       1.866       3.281       3.062       2.282       1.217      3.3430E-03
   6    9.997       8.830       7.544       6.053       4.421       3.910       3.264       2.359       1.246      3.4225E-03
   7    9.997       8.927       7.795       6.585       5.387       4.471       3.550       2.498       1.303      3.5805E-03
   8    9.998       9.018       7.999       6.938       5.869       4.845       3.787       2.631       1.362      3.7445E-03
   9    9.998       9.081       8.133       7.146       6.123       5.066       3.945       2.727       1.408      3.8694E-03
  10    9.998       9.112       8.198       7.241       6.235       5.168       4.022       2.777       1.431      3.9351E-03
1
              HEAD IN LAYER   3 AT END OF TIME STEP  93 IN STRESS PERIOD    4
  ---------------------------------------------------------------------------

            1           2           3           4           5           6           7           8           9          10
 ........................................................................................................................
   1    9.998       9.019       8.014       6.982       5.935       4.886       3.794       2.621       1.351      4.0078E-03
   2    9.997       8.979       7.925       6.837       5.753       4.732       3.691       2.562       1.325      3.9293E-03
   3    9.997       8.904       7.750       6.524       5.318       4.404       3.492       2.455       1.280      3.7946E-03
   4    9.997       8.817       7.521       6.021       4.393       3.876       3.234       2.337       1.233      3.6561E-03
   5    9.997       8.770       7.359       5.455       2.238       3.282       3.055       2.276       1.213      3.5965E-03
   6    9.997       8.826       7.539       6.045       4.420       3.902       3.257       2.353       1.241      3.6819E-03
   7    9.997       8.924       7.789       6.578       5.379       4.463       3.542       2.492       1.299      3.8514E-03
   8    9.998       9.015       7.995       6.932       5.861       4.837       3.780       2.625       1.358      4.0273E-03
   9    9.998       9.078       8.129       7.140       6.115       5.058       3.937       2.721       1.403      4.1612E-03
  10    9.998       9.110       8.193       7.235       6.227       5.161       4.014       2.770       1.427      4.2317E-03
1
              HEAD IN LAYER   4 AT END OF TIME STEP  93 IN STRESS PERIOD    4
  ---------------------------------------------------------------------------

            1           2           3           4           5           6           7           8           9          10
 ........................................................................................................................
   1    9.998       9.018       8.012       6.978       5.931       4.882       3.790       2.617       1.349      4.0320E-03
   2    9.997       8.977       7.922       6.833       5.749       4.728       3.687       2.558       1.323      3.9530E-03
   3    9.997       8.902       7.747       6.521       5.314       4.400       3.488       2.452       1.277      3.8175E-03
   4    9.997       8.816       7.518       6.017       4.394       3.872       3.230       2.333       1.231      3.6782E-03
   5    9.997       8.768       7.356       5.456       2.416       3.285       3.051       2.272       1.211      3.6182E-03
   6    9.997       8.825       7.536       6.041       4.421       3.899       3.253       2.350       1.239      3.7042E-03
   7    9.997       8.923       7.787       6.574       5.375       4.459       3.538       2.488       1.296      3.8748E-03
   8    9.998       9.014       7.992       6.928       5.857       4.833       3.776       2.622       1.356      4.0518E-03
   9    9.998       9.077       8.126       7.136       6.111       5.055       3.933       2.718       1.401      4.1867E-03
  10    9.998       9.109       8.191       7.232       6.224       5.157       4.010       2.767       1.425      4.2576E-03

 HEAD WILL BE SAVED ON UNIT   51 AT END OF TIME STEP   93, STRESS PERIOD    4

 DRAWDOWN WILL BE SAVED ON UNIT   52 AT END OF TIME STEP   93, STRESS PERIOD    4
1
  VOLUMETRIC BUDGET FOR ENTIRE MODEL AT END OF TIME STEP   93, STRESS PERIOD   4
  ------------------------------------------------------------------------------

     CUMULATIVE VOLUMES      L**3       RATES FOR THIS TIME STEP      L**3/T
     ------------------                 ------------------------

           IN:                                      IN:
           ---                                      ---
             STORAGE =      518280.5625               STORAGE =         538.4944
       CONSTANT HEAD =           0.0000         CONSTANT HEAD =           0.0000
               WELLS =           0.0000                 WELLS =           0.0000
     HEAD DEP BOUNDS =       76940.6250       HEAD DEP BOUNDS =         624.7190

            TOTAL IN =      595221.1875              TOTAL IN =        1163.2134

          OUT:                                     OUT:
          ----                                     ----
             STORAGE =           0.0000               STORAGE =           0.0000
       CONSTANT HEAD =           0.0000         CONSTANT HEAD =           0.0000
               WELLS =       96500.0000                 WELLS =         500.0000
     HEAD DEP BOUNDS =      498723.3125       HEAD DEP BOUNDS =         663.2330

           TOTAL OUT =      595223.3125             TOTAL OUT =        1163.2330

            IN - OUT =          -2.1250              IN - OUT =      -1.9653E-02

 PERCENT DISCREPANCY =          -0.00     PERCENT DISCREPANCY =          -0.00






         TIME SUMMARY AT END OF TIME STEP   93 IN STRESS PERIOD    4
                    SECONDS     MINUTES      HOURS       DAYS        YEARS
                    -----------------------------------------------------------
   TIME STEP LENGTH  86400.      1440.0      24.000      1.0000     2.73785E-03
 STRESS PERIOD TIME 8.03520E+06 1.33920E+05  2232.0      93.000     0.25462    
         TOTAL TIME 2.54016E+07 4.23360E+05  7056.0      294.00     0.80493    
1
 
 SOLVING FOR HEAD 

 OUTPUT CONTROL FOR STRESS PERIOD    4   TIME STEP   94
    SAVE HEAD FOR ALL LAYERS
    SAVE DRAWDOWN FOR ALL LAYERS
    SAVE BUDGET
    PRINT HEAD FOR ALL LAYERS
    PRINT BUDGET
 UBDSV1 SAVING "         STORAGE" ON UNIT  53 AT TIME STEP 94, STRESS PERIOD   4
 UBDSV2 SAVING "   CONSTANT HEAD" ON UNIT  53 AT TIME STEP 94, STRESS PERIOD   4
 UBDSV1 SAVING "FLOW RIGHT FACE " ON UNIT  53 AT TIME STEP 94, STRESS PERIOD   4
 UBDSV1 SAVING "FLOW FRONT FACE " ON UNIT  53 AT TIME STEP 94, STRESS PERIOD   4
 UBDSV1 SAVING "FLOW LOWER FACE " ON UNIT  53 AT TIME STEP 94, STRESS PERIOD   4
1
              HEAD IN LAYER   1 AT END OF TIME STEP  94 IN STRESS PERIOD    4
  ---------------------------------------------------------------------------

            1           2           3           4           5           6           7           8           9          10
 ........................................................................................................................
   1    9.998       9.023       8.021       6.990       5.945       4.895       3.803       2.629       1.357      1.8852E-03
   2    9.998       8.983       7.932       6.845       5.763       4.742       3.700       2.569       1.331      1.8459E-03
   3    9.997       8.909       7.757       6.534       5.328       4.413       3.501       2.463       1.285      1.7785E-03
   4    9.997       8.822       7.529       6.032       4.394       3.884       3.242       2.344       1.238      1.7097E-03
   5    9.997       8.776       7.369       5.463       1.429       3.277       3.062       2.282       1.218      1.6801E-03
   6    9.997       8.832       7.547       6.056       4.422       3.911       3.265       2.360       1.247      1.7224E-03
   7    9.997       8.929       7.796       6.587       5.389       4.472       3.551       2.499       1.304      1.8067E-03
   8    9.998       9.019       8.001       6.940       5.870       4.847       3.788       2.632       1.364      1.8947E-03
   9    9.998       9.082       8.135       7.147       6.124       5.068       3.946       2.729       1.409      1.9619E-03
  10    9.998       9.114       8.199       7.243       6.236       5.170       4.023       2.778       1.433      1.9975E-03
1
              HEAD IN LAYER   2 AT END OF TIME STEP  94 IN STRESS PERIOD    4
  ---------------------------------------------------------------------------

            1           2           3           4           5           6           7           8           9          10
 ........................................................................................................................
   1    9.998       9.019       8.014       6.981       5.935       4.885       3.794       2.621       1.353      3.7172E-03
   2    9.997       8.979       7.925       6.836       5.752       4.732       3.691       2.562       1.326      3.6439E-03
   3    9.997       8.904       7.750       6.524       5.317       4.403       3.491       2.455       1.280      3.5182E-03
   4    9.997       8.818       7.521       6.021       4.385       3.874       3.233       2.337       1.234      3.3890E-03
   5    9.997       8.771       7.360       5.451       1.857       3.271       3.054       2.275       1.213      3.3334E-03
   6    9.997       8.827       7.539       6.045       4.412       3.901       3.256       2.353       1.242      3.4131E-03
   7    9.997       8.925       7.789       6.578       5.378       4.462       3.542       2.492       1.300      3.5712E-03
   8    9.998       9.015       7.994       6.931       5.860       4.837       3.779       2.625       1.359      3.7354E-03
   9    9.998       9.078       8.128       7.139       6.114       5.058       3.937       2.722       1.404      3.8605E-03
  10    9.998       9.110       8.193       7.234       6.227       5.160       4.014       2.771       1.428      3.9262E-03
1
              HEAD IN LAYER   3 AT END OF TIME STEP  94 IN STRESS PERIOD    4
  ---------------------------------------------------------------------------

            1           2           3           4           5           6           7           8           9          10
 ........................................................................................................................
   1    9.998       9.016       8.009       6.974       5.927       4.877       3.786       2.614       1.348      3.9976E-03
   2    9.997       8.976       7.919       6.829       5.744       4.723       3.683       2.555       1.322      3.9191E-03
   3    9.997       8.901       7.745       6.517       5.309       4.395       3.484       2.449       1.276      3.7844E-03
   4    9.997       8.814       7.515       6.013       4.383       3.866       3.226       2.330       1.229      3.6459E-03
   5    9.997       8.767       7.353       5.448       2.228       3.273       3.047       2.269       1.209      3.5863E-03
   6    9.997       8.824       7.533       6.037       4.411       3.893       3.249       2.347       1.238      3.6718E-03
   7    9.997       8.922       7.784       6.570       5.370       4.454       3.534       2.486       1.295      3.8415E-03
   8    9.998       9.012       7.989       6.925       5.852       4.829       3.772       2.619       1.355      4.0176E-03
   9    9.998       9.076       8.123       7.133       6.107       5.050       3.930       2.715       1.400      4.1517E-03
  10    9.998       9.107       8.188       7.228       6.219       5.152       4.007       2.764       1.424      4.2223E-03
1
              HEAD IN LAYER   4 AT END OF TIME STEP  94 IN STRESS PERIOD    4
  ---------------------------------------------------------------------------

            1           2           3           4           5           6           7           8           9          10
 ........................................................................................................................
   1    9.998       9.015       8.006       6.971       5.923       4.873       3.782       2.611       1.346      4.0218E-03
   2    9.997       8.974       7.917       6.826       5.740       4.719       3.679       2.552       1.319      3.9428E-03
   3    9.997       8.899       7.742       6.513       5.305       4.390       3.480       2.446       1.274      3.8072E-03
   4    9.997       8.813       7.512       6.009       4.385       3.863       3.222       2.327       1.227      3.6679E-03
   5    9.997       8.765       7.350       5.448       2.406       3.275       3.043       2.266       1.207      3.6080E-03
   6    9.997       8.822       7.530       6.034       4.412       3.889       3.245       2.344       1.236      3.6940E-03
   7    9.997       8.920       7.781       6.567       5.366       4.450       3.530       2.482       1.293      3.8648E-03
   8    9.998       9.011       7.987       6.921       5.849       4.825       3.768       2.616       1.353      4.0421E-03
   9    9.998       9.074       8.121       7.129       6.103       5.046       3.926       2.712       1.398      4.1771E-03
  10    9.998       9.106       8.186       7.225       6.216       5.148       4.003       2.761       1.421      4.2481E-03

 HEAD WILL BE SAVED ON UNIT   51 AT END OF TIME STEP   94, STRESS PERIOD    4

 DRAWDOWN WILL BE SAVED ON UNIT   52 AT END OF TIME STEP   94, STRESS PERIOD    4
1
  VOLUMETRIC BUDGET FOR ENTIRE MODEL AT END OF TIME STEP   94, STRESS PERIOD   4
  ------------------------------------------------------------------------------

     CUMULATIVE VOLUMES      L**3       RATES FOR THIS TIME STEP      L**3/T
     ------------------                 ------------------------

           IN:                                      IN:
           ---                                      ---
             STORAGE =      518815.7188               STORAGE =         535.1424
       CONSTANT HEAD =           0.0000         CONSTANT HEAD =           0.0000
               WELLS =           0.0000                 WELLS =           0.0000
     HEAD DEP BOUNDS =       77566.9844       HEAD DEP BOUNDS =         626.3625

            TOTAL IN =      596382.6875              TOTAL IN =        1161.5049

          OUT:                                     OUT:
          ----                                     ----
             STORAGE =           0.0000               STORAGE =           0.0000
       CONSTANT HEAD =           0.0000         CONSTANT HEAD =           0.0000
               WELLS =       97000.0000                 WELLS =         500.0000
     HEAD DEP BOUNDS =      499384.8125       HEAD DEP BOUNDS =         661.5148

           TOTAL OUT =      596384.8125             TOTAL OUT =        1161.5148

            IN - OUT =          -2.1250              IN - OUT =      -9.8877E-03

 PERCENT DISCREPANCY =          -0.00     PERCENT DISCREPANCY =          -0.00






         TIME SUMMARY AT END OF TIME STEP   94 IN STRESS PERIOD    4
                    SECONDS     MINUTES      HOURS       DAYS        YEARS
                    -----------------------------------------------------------
   TIME STEP LENGTH  86400.      1440.0      24.000      1.0000     2.73785E-03
 STRESS PERIOD TIME 8.12160E+06 1.35360E+05  2256.0      94.000     0.25736    
         TOTAL TIME 2.54880E+07 4.24800E+05  7080.0      295.00     0.80767    
1
 
 SOLVING FOR HEAD 

 OUTPUT CONTROL FOR STRESS PERIOD    4   TIME STEP   95
    SAVE HEAD FOR ALL LAYERS
    SAVE DRAWDOWN FOR ALL LAYERS
    SAVE BUDGET
    PRINT HEAD FOR ALL LAYERS
    PRINT BUDGET
 UBDSV1 SAVING "         STORAGE" ON UNIT  53 AT TIME STEP 95, STRESS PERIOD   4
 UBDSV2 SAVING "   CONSTANT HEAD" ON UNIT  53 AT TIME STEP 95, STRESS PERIOD   4
 UBDSV1 SAVING "FLOW RIGHT FACE " ON UNIT  53 AT TIME STEP 95, STRESS PERIOD   4
 UBDSV1 SAVING "FLOW FRONT FACE " ON UNIT  53 AT TIME STEP 95, STRESS PERIOD   4
 UBDSV1 SAVING "FLOW LOWER FACE " ON UNIT  53 AT TIME STEP 95, STRESS PERIOD   4
1
              HEAD IN LAYER   1 AT END OF TIME STEP  95 IN STRESS PERIOD    4
  ---------------------------------------------------------------------------

            1           2           3           4           5           6           7           8           9          10
 ........................................................................................................................
   1    9.998       9.021       8.015       6.983       5.936       4.886       3.795       2.622       1.354      1.8801E-03
   2    9.998       8.980       7.926       6.838       5.754       4.733       3.692       2.563       1.327      1.8409E-03
   3    9.997       8.906       7.752       6.526       5.319       4.404       3.492       2.456       1.282      1.7735E-03
   4    9.997       8.820       7.524       6.024       4.385       3.875       3.234       2.337       1.235      1.7046E-03
   5    9.997       8.773       7.363       5.455       1.419       3.268       3.054       2.276       1.214      1.6751E-03
   6    9.997       8.829       7.541       6.048       4.413       3.901       3.257       2.354       1.243      1.7174E-03
   7    9.997       8.926       7.791       6.580       5.380       4.463       3.543       2.493       1.301      1.8019E-03
   8    9.998       9.016       7.996       6.933       5.862       4.838       3.781       2.626       1.360      1.8898E-03
   9    9.998       9.079       8.130       7.140       6.116       5.059       3.938       2.723       1.406      1.9571E-03
  10    9.998       9.111       8.194       7.236       6.228       5.161       4.016       2.772       1.430      1.9925E-03
1
              HEAD IN LAYER   2 AT END OF TIME STEP  95 IN STRESS PERIOD    4
  ---------------------------------------------------------------------------

            1           2           3           4           5           6           7           8           9          10
 ........................................................................................................................
   1    9.998       9.016       8.008       6.973       5.926       4.876       3.786       2.615       1.349      3.7077E-03
   2    9.997       8.976       7.919       6.828       5.743       4.723       3.683       2.556       1.323      3.6344E-03
   3    9.997       8.901       7.744       6.517       5.309       4.394       3.483       2.449       1.277      3.5087E-03
   4    9.997       8.815       7.516       6.014       4.376       3.865       3.225       2.330       1.230      3.3795E-03
   5    9.997       8.768       7.354       5.443       1.847       3.262       3.045       2.269       1.210      3.3239E-03
   6    9.997       8.824       7.533       6.038       4.403       3.892       3.248       2.347       1.239      3.4037E-03
   7    9.997       8.922       7.784       6.570       5.370       4.453       3.534       2.486       1.296      3.5620E-03
   8    9.998       9.012       7.989       6.924       5.852       4.828       3.772       2.619       1.356      3.7264E-03
   9    9.998       9.076       8.123       7.132       6.106       5.050       3.929       2.716       1.401      3.8516E-03
  10    9.998       9.107       8.188       7.227       6.218       5.152       4.007       2.765       1.425      3.9174E-03
1
              HEAD IN LAYER   3 AT END OF TIME STEP  95 IN STRESS PERIOD    4
  ---------------------------------------------------------------------------

            1           2           3           4           5           6           7           8           9          10
 ........................................................................................................................
   1    9.998       9.013       8.003       6.967       5.918       4.868       3.778       2.608       1.345      3.9875E-03
   2    9.997       8.973       7.914       6.822       5.735       4.714       3.675       2.549       1.318      3.9090E-03
   3    9.997       8.898       7.739       6.509       5.300       4.386       3.475       2.443       1.273      3.7742E-03
   4    9.997       8.811       7.510       6.006       4.374       3.857       3.218       2.324       1.226      3.6357E-03
   5    9.997       8.764       7.348       5.440       2.219       3.264       3.038       2.263       1.206      3.5762E-03
   6    9.997       8.821       7.528       6.030       4.402       3.884       3.241       2.341       1.235      3.6618E-03
   7    9.997       8.919       7.779       6.563       5.361       4.445       3.526       2.479       1.292      3.8316E-03
   8    9.998       9.010       7.984       6.918       5.844       4.820       3.764       2.613       1.351      4.0079E-03
   9    9.998       9.073       8.118       7.126       6.099       5.042       3.922       2.709       1.397      4.1422E-03
  10    9.998       9.105       8.183       7.221       6.211       5.144       3.999       2.759       1.421      4.2129E-03
1
              HEAD IN LAYER   4 AT END OF TIME STEP  95 IN STRESS PERIOD    4
  ---------------------------------------------------------------------------

            1           2           3           4           5           6           7           8           9          10
 ........................................................................................................................
   1    9.998       9.012       8.001       6.963       5.914       4.864       3.774       2.605       1.342      4.0117E-03
   2    9.997       8.971       7.911       6.818       5.731       4.710       3.671       2.546       1.316      3.9326E-03
   3    9.997       8.897       7.736       6.506       5.296       4.381       3.471       2.439       1.270      3.7970E-03
   4    9.997       8.810       7.507       6.002       4.376       3.853       3.214       2.321       1.224      3.6576E-03
   5    9.997       8.763       7.345       5.440       2.397       3.266       3.035       2.260       1.204      3.5978E-03
   6    9.997       8.819       7.525       6.026       4.403       3.881       3.237       2.337       1.233      3.6840E-03
   7    9.997       8.917       7.776       6.560       5.358       4.441       3.523       2.476       1.290      3.8549E-03
   8    9.998       9.008       7.982       6.914       5.840       4.816       3.760       2.610       1.349      4.0324E-03
   9    9.998       9.072       8.116       7.122       6.095       5.038       3.918       2.706       1.395      4.1676E-03
  10    9.998       9.103       8.181       7.218       6.208       5.140       3.995       2.755       1.418      4.2387E-03

 HEAD WILL BE SAVED ON UNIT   51 AT END OF TIME STEP   95, STRESS PERIOD    4

 DRAWDOWN WILL BE SAVED ON UNIT   52 AT END OF TIME STEP   95, STRESS PERIOD    4
1
  VOLUMETRIC BUDGET FOR ENTIRE MODEL AT END OF TIME STEP   95, STRESS PERIOD   4
  ------------------------------------------------------------------------------

     CUMULATIVE VOLUMES      L**3       RATES FOR THIS TIME STEP      L**3/T
     ------------------                 ------------------------

           IN:                                      IN:
           ---                                      ---
             STORAGE =      519347.5312               STORAGE =         531.8085
       CONSTANT HEAD =           0.0000         CONSTANT HEAD =           0.0000
               WELLS =           0.0000                 WELLS =           0.0000
     HEAD DEP BOUNDS =       78194.9688       HEAD DEP BOUNDS =         627.9853

            TOTAL IN =      597542.5000              TOTAL IN =        1159.7938

          OUT:                                     OUT:
          ----                                     ----
             STORAGE =           0.0000               STORAGE =           0.0000
       CONSTANT HEAD =           0.0000         CONSTANT HEAD =           0.0000
               WELLS =       97500.0000                 WELLS =         500.0000
     HEAD DEP BOUNDS =      500044.6250       HEAD DEP BOUNDS =         659.8074

           TOTAL OUT =      597544.6250             TOTAL OUT =        1159.8074

            IN - OUT =          -2.1250              IN - OUT =      -1.3550E-02

 PERCENT DISCREPANCY =          -0.00     PERCENT DISCREPANCY =          -0.00






         TIME SUMMARY AT END OF TIME STEP   95 IN STRESS PERIOD    4
                    SECONDS     MINUTES      HOURS       DAYS        YEARS
                    -----------------------------------------------------------
   TIME STEP LENGTH  86400.      1440.0      24.000      1.0000     2.73785E-03
 STRESS PERIOD TIME 8.20800E+06 1.36800E+05  2280.0      95.000     0.26010    
         TOTAL TIME 2.55744E+07 4.26240E+05  7104.0      296.00     0.81040    
1
 
 SOLVING FOR HEAD 

 OUTPUT CONTROL FOR STRESS PERIOD    4   TIME STEP   96
    SAVE HEAD FOR ALL LAYERS
    SAVE DRAWDOWN FOR ALL LAYERS
    SAVE BUDGET
    PRINT HEAD FOR ALL LAYERS
    PRINT BUDGET
 UBDSV1 SAVING "         STORAGE" ON UNIT  53 AT TIME STEP 96, STRESS PERIOD   4
 UBDSV2 SAVING "   CONSTANT HEAD" ON UNIT  53 AT TIME STEP 96, STRESS PERIOD   4
 UBDSV1 SAVING "FLOW RIGHT FACE " ON UNIT  53 AT TIME STEP 96, STRESS PERIOD   4
 UBDSV1 SAVING "FLOW FRONT FACE " ON UNIT  53 AT TIME STEP 96, STRESS PERIOD   4
 UBDSV1 SAVING "FLOW LOWER FACE " ON UNIT  53 AT TIME STEP 96, STRESS PERIOD   4
1
              HEAD IN LAYER   1 AT END OF TIME STEP  96 IN STRESS PERIOD    4
  ---------------------------------------------------------------------------

            1           2           3           4           5           6           7           8           9          10
 ........................................................................................................................
   1    9.998       9.018       8.010       6.975       5.927       4.877       3.787       2.616       1.350      1.8749E-03
   2    9.998       8.977       7.921       6.830       5.745       4.724       3.684       2.557       1.324      1.8357E-03
   3    9.997       8.903       7.746       6.519       5.310       4.395       3.484       2.450       1.278      1.7684E-03
   4    9.997       8.817       7.518       6.017       4.376       3.865       3.226       2.331       1.231      1.6995E-03
   5    9.997       8.770       7.358       5.448       1.410       3.258       3.045       2.270       1.211      1.6699E-03
   6    9.997       8.826       7.536       6.041       4.404       3.892       3.249       2.348       1.240      1.7125E-03
   7    9.997       8.924       7.786       6.572       5.371       4.455       3.535       2.487       1.297      1.7969E-03
   8    9.998       9.014       7.991       6.926       5.853       4.829       3.773       2.620       1.357      1.8851E-03
   9    9.998       9.077       8.125       7.133       6.108       5.051       3.931       2.717       1.403      1.9523E-03
  10    9.998       9.108       8.189       7.229       6.220       5.153       4.008       2.766       1.427      1.9878E-03
1
              HEAD IN LAYER   2 AT END OF TIME STEP  96 IN STRESS PERIOD    4
  ---------------------------------------------------------------------------

            1           2           3           4           5           6           7           8           9          10
 ........................................................................................................................
   1    9.998       9.014       8.003       6.966       5.917       4.867       3.778       2.609       1.346      3.6983E-03
   2    9.997       8.973       7.914       6.821       5.735       4.714       3.675       2.549       1.319      3.6249E-03
   3    9.997       8.898       7.739       6.509       5.300       4.385       3.475       2.443       1.273      3.4992E-03
   4    9.997       8.812       7.510       6.006       4.367       3.856       3.217       2.324       1.227      3.3700E-03
   5    9.997       8.765       7.349       5.435       1.837       3.253       3.037       2.263       1.206      3.3145E-03
   6    9.997       8.821       7.528       6.030       4.394       3.883       3.240       2.341       1.235      3.3944E-03
   7    9.997       8.919       7.779       6.563       5.361       4.445       3.526       2.480       1.293      3.5528E-03
   8    9.998       9.010       7.984       6.917       5.844       4.820       3.764       2.613       1.353      3.7174E-03
   9    9.998       9.073       8.118       7.125       6.098       5.041       3.922       2.710       1.398      3.8427E-03
  10    9.998       9.105       8.183       7.220       6.210       5.144       3.999       2.759       1.422      3.9087E-03
1
              HEAD IN LAYER   3 AT END OF TIME STEP  96 IN STRESS PERIOD    4
  ---------------------------------------------------------------------------

            1           2           3           4           5           6           7           8           9          10
 ........................................................................................................................
   1    9.998       9.011       7.998       6.959       5.909       4.859       3.770       2.602       1.341      3.9775E-03
   2    9.997       8.970       7.909       6.814       5.727       4.705       3.667       2.543       1.315      3.8989E-03
   3    9.997       8.895       7.734       6.502       5.291       4.377       3.467       2.437       1.269      3.7641E-03
   4    9.997       8.809       7.504       5.998       4.365       3.848       3.209       2.318       1.222      3.6255E-03
   5    9.997       8.761       7.342       5.432       2.209       3.254       3.030       2.257       1.202      3.5661E-03
   6    9.997       8.818       7.522       6.023       4.393       3.875       3.233       2.334       1.231      3.6518E-03
   7    9.997       8.916       7.774       6.556       5.353       4.437       3.518       2.473       1.289      3.8218E-03
   8    9.998       9.007       7.979       6.910       5.836       4.812       3.756       2.607       1.348      3.9984E-03
   9    9.998       9.070       8.113       7.119       6.091       5.033       3.915       2.704       1.394      4.1328E-03
  10    9.998       9.102       8.178       7.214       6.203       5.136       3.992       2.753       1.417      4.2035E-03
1
              HEAD IN LAYER   4 AT END OF TIME STEP  96 IN STRESS PERIOD    4
  ---------------------------------------------------------------------------

            1           2           3           4           5           6           7           8           9          10
 ........................................................................................................................
   1    9.998       9.009       7.996       6.956       5.905       4.855       3.766       2.599       1.339      4.0016E-03
   2    9.997       8.969       7.906       6.811       5.723       4.701       3.663       2.540       1.313      3.9225E-03
   3    9.997       8.894       7.731       6.498       5.287       4.372       3.463       2.433       1.267      3.7868E-03
   4    9.997       8.807       7.502       5.994       4.367       3.844       3.206       2.315       1.220      3.6475E-03
   5    9.997       8.760       7.339       5.433       2.387       3.257       3.027       2.254       1.200      3.5877E-03
   6    9.997       8.816       7.520       6.019       4.395       3.872       3.229       2.331       1.229      3.6740E-03
   7    9.997       8.915       7.771       6.552       5.349       4.433       3.515       2.470       1.287      3.8451E-03
   8    9.998       9.005       7.977       6.907       5.832       4.808       3.753       2.604       1.346      4.0228E-03
   9    9.998       9.069       8.111       7.116       6.087       5.030       3.911       2.700       1.391      4.1581E-03
  10    9.998       9.101       8.176       7.211       6.200       5.132       3.988       2.750       1.415      4.2293E-03

 HEAD WILL BE SAVED ON UNIT   51 AT END OF TIME STEP   96, STRESS PERIOD    4

 DRAWDOWN WILL BE SAVED ON UNIT   52 AT END OF TIME STEP   96, STRESS PERIOD    4
1
  VOLUMETRIC BUDGET FOR ENTIRE MODEL AT END OF TIME STEP   96, STRESS PERIOD   4
  ------------------------------------------------------------------------------

     CUMULATIVE VOLUMES      L**3       RATES FOR THIS TIME STEP      L**3/T
     ------------------                 ------------------------

           IN:                                      IN:
           ---                                      ---
             STORAGE =      519876.0312               STORAGE =         528.4908
       CONSTANT HEAD =           0.0000         CONSTANT HEAD =           0.0000
               WELLS =           0.0000                 WELLS =           0.0000
     HEAD DEP BOUNDS =       78824.5703       HEAD DEP BOUNDS =         629.6040

            TOTAL IN =      598700.6250              TOTAL IN =        1158.0948

          OUT:                                     OUT:
          ----                                     ----
             STORAGE =           0.0000               STORAGE =           0.0000
       CONSTANT HEAD =           0.0000         CONSTANT HEAD =           0.0000
               WELLS =       98000.0000                 WELLS =         500.0000
     HEAD DEP BOUNDS =      500702.7188       HEAD DEP BOUNDS =         658.1075

           TOTAL OUT =      598702.7500             TOTAL OUT =        1158.1075

            IN - OUT =          -2.1250              IN - OUT =      -1.2695E-02

 PERCENT DISCREPANCY =          -0.00     PERCENT DISCREPANCY =          -0.00






         TIME SUMMARY AT END OF TIME STEP   96 IN STRESS PERIOD    4
                    SECONDS     MINUTES      HOURS       DAYS        YEARS
                    -----------------------------------------------------------
   TIME STEP LENGTH  86400.      1440.0      24.000      1.0000     2.73785E-03
 STRESS PERIOD TIME 8.29440E+06 1.38240E+05  2304.0      96.000     0.26283    
         TOTAL TIME 2.56608E+07 4.27680E+05  7128.0      297.00     0.81314    
1
 
 SOLVING FOR HEAD 

 OUTPUT CONTROL FOR STRESS PERIOD    4   TIME STEP   97
    SAVE HEAD FOR ALL LAYERS
    SAVE DRAWDOWN FOR ALL LAYERS
    SAVE BUDGET
    PRINT HEAD FOR ALL LAYERS
    PRINT BUDGET
 UBDSV1 SAVING "         STORAGE" ON UNIT  53 AT TIME STEP 97, STRESS PERIOD   4
 UBDSV2 SAVING "   CONSTANT HEAD" ON UNIT  53 AT TIME STEP 97, STRESS PERIOD   4
 UBDSV1 SAVING "FLOW RIGHT FACE " ON UNIT  53 AT TIME STEP 97, STRESS PERIOD   4
 UBDSV1 SAVING "FLOW FRONT FACE " ON UNIT  53 AT TIME STEP 97, STRESS PERIOD   4
 UBDSV1 SAVING "FLOW LOWER FACE " ON UNIT  53 AT TIME STEP 97, STRESS PERIOD   4
1
              HEAD IN LAYER   1 AT END OF TIME STEP  97 IN STRESS PERIOD    4
  ---------------------------------------------------------------------------

            1           2           3           4           5           6           7           8           9          10
 ........................................................................................................................
   1    9.998       9.015       8.005       6.968       5.919       4.868       3.779       2.610       1.347      1.8699E-03
   2    9.998       8.974       7.915       6.823       5.736       4.715       3.676       2.551       1.320      1.8306E-03
   3    9.997       8.900       7.741       6.511       5.302       4.386       3.476       2.444       1.275      1.7634E-03
   4    9.997       8.814       7.513       6.009       4.367       3.856       3.217       2.325       1.228      1.6944E-03
   5    9.997       8.767       7.352       5.440       1.400       3.249       3.037       2.263       1.207      1.6650E-03
   6    9.997       8.823       7.531       6.033       4.395       3.883       3.240       2.341       1.236      1.7075E-03
   7    9.997       8.921       7.781       6.565       5.363       4.446       3.527       2.481       1.294      1.7920E-03
   8    9.998       9.011       7.986       6.919       5.845       4.821       3.765       2.615       1.354      1.8803E-03
   9    9.998       9.074       8.119       7.126       6.100       5.043       3.923       2.711       1.399      1.9475E-03
  10    9.998       9.106       8.184       7.222       6.212       5.145       4.001       2.761       1.423      1.9830E-03
1
              HEAD IN LAYER   2 AT END OF TIME STEP  97 IN STRESS PERIOD    4
  ---------------------------------------------------------------------------

            1           2           3           4           5           6           7           8           9          10
 ........................................................................................................................
   1    9.998       9.011       7.998       6.959       5.909       4.858       3.770       2.603       1.342      3.6889E-03
   2    9.997       8.970       7.908       6.814       5.726       4.705       3.666       2.543       1.316      3.6155E-03
   3    9.997       8.896       7.734       6.501       5.291       4.376       3.467       2.437       1.270      3.4898E-03
   4    9.997       8.809       7.505       5.998       4.358       3.847       3.209       2.318       1.223      3.3605E-03
   5    9.997       8.762       7.343       5.428       1.828       3.244       3.029       2.257       1.203      3.3051E-03
   6    9.997       8.819       7.523       6.023       4.386       3.874       3.232       2.335       1.232      3.3851E-03
   7    9.997       8.916       7.773       6.556       5.353       4.436       3.518       2.474       1.290      3.5437E-03
   8    9.998       9.007       7.979       6.910       5.835       4.811       3.756       2.607       1.349      3.7085E-03
   9    9.998       9.070       8.113       7.118       6.090       5.033       3.914       2.704       1.395      3.8339E-03
  10    9.998       9.102       8.178       7.214       6.202       5.135       3.992       2.754       1.419      3.9000E-03
1
              HEAD IN LAYER   3 AT END OF TIME STEP  97 IN STRESS PERIOD    4
  ---------------------------------------------------------------------------

            1           2           3           4           5           6           7           8           9          10
 ........................................................................................................................
   1    9.998       9.008       7.993       6.952       5.901       4.850       3.762       2.596       1.338      3.9675E-03
   2    9.997       8.967       7.903       6.807       5.718       4.697       3.659       2.537       1.311      3.8888E-03
   3    9.997       8.892       7.728       6.494       5.283       4.368       3.459       2.430       1.266      3.7540E-03
   4    9.997       8.806       7.499       5.991       4.357       3.839       3.201       2.311       1.219      3.6155E-03
   5    9.997       8.759       7.337       5.425       2.200       3.245       3.022       2.251       1.199      3.5561E-03
   6    9.997       8.815       7.517       6.015       4.385       3.866       3.225       2.328       1.228      3.6419E-03
   7    9.997       8.914       7.768       6.549       5.345       4.428       3.511       2.468       1.285      3.8121E-03
   8    9.998       9.004       7.974       6.903       5.828       4.803       3.749       2.601       1.345      3.9888E-03
   9    9.998       9.068       8.108       7.112       6.083       5.025       3.907       2.698       1.390      4.1234E-03
  10    9.998       9.099       8.173       7.208       6.195       5.128       3.984       2.747       1.414      4.1943E-03
1
              HEAD IN LAYER   4 AT END OF TIME STEP  97 IN STRESS PERIOD    4
  ---------------------------------------------------------------------------

            1           2           3           4           5           6           7           8           9          10
 ........................................................................................................................
   1    9.998       9.006       7.990       6.949       5.897       4.846       3.758       2.593       1.336      3.9915E-03
   2    9.997       8.966       7.901       6.803       5.714       4.692       3.655       2.533       1.309      3.9124E-03
   3    9.997       8.891       7.726       6.491       5.279       4.363       3.455       2.427       1.264      3.7767E-03
   4    9.997       8.804       7.496       5.987       4.358       3.835       3.198       2.308       1.217      3.6374E-03
   5    9.997       8.757       7.334       5.425       2.378       3.248       3.019       2.248       1.197      3.5776E-03
   6    9.997       8.814       7.514       6.011       4.386       3.863       3.221       2.325       1.226      3.6641E-03
   7    9.997       8.912       7.766       6.545       5.341       4.424       3.507       2.464       1.283      3.8354E-03
   8    9.998       9.003       7.972       6.900       5.824       4.799       3.745       2.598       1.343      4.0133E-03
   9    9.998       9.066       8.106       7.109       6.079       5.021       3.903       2.695       1.388      4.1487E-03
  10    9.998       9.098       8.171       7.205       6.192       5.124       3.981       2.744       1.412      4.2200E-03

 HEAD WILL BE SAVED ON UNIT   51 AT END OF TIME STEP   97, STRESS PERIOD    4

 DRAWDOWN WILL BE SAVED ON UNIT   52 AT END OF TIME STEP   97, STRESS PERIOD    4
1
  VOLUMETRIC BUDGET FOR ENTIRE MODEL AT END OF TIME STEP   97, STRESS PERIOD   4
  ------------------------------------------------------------------------------

     CUMULATIVE VOLUMES      L**3       RATES FOR THIS TIME STEP      L**3/T
     ------------------                 ------------------------

           IN:                                      IN:
           ---                                      ---
             STORAGE =      520401.2188               STORAGE =         525.1958
       CONSTANT HEAD =           0.0000         CONSTANT HEAD =           0.0000
               WELLS =           0.0000                 WELLS =           0.0000
     HEAD DEP BOUNDS =       79455.7969       HEAD DEP BOUNDS =         631.2245

            TOTAL IN =      599857.0000              TOTAL IN =        1156.4204

          OUT:                                     OUT:
          ----                                     ----
             STORAGE =           0.0000               STORAGE =           0.0000
       CONSTANT HEAD =           0.0000         CONSTANT HEAD =           0.0000
               WELLS =       98500.0000                 WELLS =         500.0000
     HEAD DEP BOUNDS =      501359.1250       HEAD DEP BOUNDS =         656.4214

           TOTAL OUT =      599859.1250             TOTAL OUT =        1156.4214

            IN - OUT =          -2.1250              IN - OUT =      -9.7656E-04

 PERCENT DISCREPANCY =          -0.00     PERCENT DISCREPANCY =          -0.00






         TIME SUMMARY AT END OF TIME STEP   97 IN STRESS PERIOD    4
                    SECONDS     MINUTES      HOURS       DAYS        YEARS
                    -----------------------------------------------------------
   TIME STEP LENGTH  86400.      1440.0      24.000      1.0000     2.73785E-03
 STRESS PERIOD TIME 8.38080E+06 1.39680E+05  2328.0      97.000     0.26557    
         TOTAL TIME 2.57472E+07 4.29120E+05  7152.0      298.00     0.81588    
1
 
 SOLVING FOR HEAD 

 OUTPUT CONTROL FOR STRESS PERIOD    4   TIME STEP   98
    SAVE HEAD FOR ALL LAYERS
    SAVE DRAWDOWN FOR ALL LAYERS
    SAVE BUDGET
    PRINT HEAD FOR ALL LAYERS
    PRINT BUDGET
 UBDSV1 SAVING "         STORAGE" ON UNIT  53 AT TIME STEP 98, STRESS PERIOD   4
 UBDSV2 SAVING "   CONSTANT HEAD" ON UNIT  53 AT TIME STEP 98, STRESS PERIOD   4
 UBDSV1 SAVING "FLOW RIGHT FACE " ON UNIT  53 AT TIME STEP 98, STRESS PERIOD   4
 UBDSV1 SAVING "FLOW FRONT FACE " ON UNIT  53 AT TIME STEP 98, STRESS PERIOD   4
 UBDSV1 SAVING "FLOW LOWER FACE " ON UNIT  53 AT TIME STEP 98, STRESS PERIOD   4
1
              HEAD IN LAYER   1 AT END OF TIME STEP  98 IN STRESS PERIOD    4
  ---------------------------------------------------------------------------

            1           2           3           4           5           6           7           8           9          10
 ........................................................................................................................
   1    9.998       9.012       7.999       6.960       5.910       4.860       3.771       2.604       1.344      1.8649E-03
   2    9.998       8.972       7.910       6.815       5.728       4.706       3.668       2.544       1.317      1.8256E-03
   3    9.997       8.897       7.736       6.504       5.293       4.377       3.468       2.438       1.271      1.7584E-03
   4    9.997       8.811       7.507       6.001       4.358       3.847       3.209       2.318       1.224      1.6895E-03
   5    9.997       8.764       7.347       5.433       1.391       3.240       3.029       2.257       1.204      1.6600E-03
   6    9.997       8.820       7.525       6.026       4.386       3.874       3.232       2.335       1.233      1.7025E-03
   7    9.997       8.918       7.775       6.558       5.354       4.437       3.519       2.475       1.291      1.7871E-03
   8    9.998       9.008       7.980       6.912       5.837       4.812       3.757       2.609       1.351      1.8755E-03
   9    9.998       9.072       8.114       7.120       6.091       5.034       3.916       2.706       1.396      1.9428E-03
  10    9.998       9.103       8.179       7.215       6.204       5.137       3.993       2.755       1.420      1.9783E-03
1
              HEAD IN LAYER   2 AT END OF TIME STEP  98 IN STRESS PERIOD    4
  ---------------------------------------------------------------------------

            1           2           3           4           5           6           7           8           9          10
 ........................................................................................................................
   1    9.998       9.008       7.992       6.951       5.900       4.849       3.762       2.596       1.339      3.6796E-03
   2    9.997       8.967       7.903       6.806       5.717       4.696       3.658       2.537       1.312      3.6062E-03
   3    9.997       8.893       7.728       6.494       5.282       4.367       3.459       2.431       1.267      3.4804E-03
   4    9.997       8.806       7.499       5.991       4.349       3.838       3.201       2.312       1.220      3.3512E-03
   5    9.997       8.759       7.338       5.420       1.818       3.235       3.021       2.251       1.200      3.2958E-03
   6    9.997       8.816       7.517       6.016       4.377       3.865       3.224       2.328       1.229      3.3759E-03
   7    9.997       8.914       7.768       6.549       5.344       4.427       3.510       2.468       1.286      3.5347E-03
   8    9.998       9.004       7.974       6.903       5.827       4.803       3.749       2.602       1.346      3.6996E-03
   9    9.998       9.068       8.108       7.111       6.082       5.025       3.907       2.698       1.392      3.8252E-03
  10    9.998       9.099       8.173       7.207       6.195       5.127       3.984       2.748       1.416      3.8913E-03
1
              HEAD IN LAYER   3 AT END OF TIME STEP  98 IN STRESS PERIOD    4
  ---------------------------------------------------------------------------

            1           2           3           4           5           6           7           8           9          10
 ........................................................................................................................
   1    9.998       9.005       7.987       6.945       5.892       4.841       3.754       2.590       1.334      3.9575E-03
   2    9.997       8.964       7.898       6.799       5.709       4.688       3.651       2.531       1.308      3.8789E-03
   3    9.997       8.890       7.723       6.487       5.274       4.359       3.451       2.424       1.262      3.7440E-03
   4    9.997       8.803       7.494       5.983       4.348       3.830       3.193       2.305       1.216      3.6055E-03
   5    9.997       8.756       7.332       5.417       2.191       3.236       3.014       2.244       1.196      3.5461E-03
   6    9.997       8.813       7.512       6.008       4.376       3.858       3.217       2.322       1.225      3.6321E-03
   7    9.997       8.911       7.763       6.542       5.336       4.419       3.503       2.462       1.282      3.8025E-03
   8    9.998       9.002       7.969       6.896       5.820       4.795       3.741       2.595       1.342      3.9794E-03
   9    9.998       9.065       8.103       7.105       6.075       5.017       3.900       2.692       1.387      4.1141E-03
  10    9.998       9.097       8.168       7.201       6.187       5.120       3.977       2.742       1.411      4.1850E-03
1
              HEAD IN LAYER   4 AT END OF TIME STEP  98 IN STRESS PERIOD    4
  ---------------------------------------------------------------------------

            1           2           3           4           5           6           7           8           9          10
 ........................................................................................................................
   1    9.998       9.004       7.985       6.941       5.888       4.837       3.750       2.587       1.332      3.9815E-03
   2    9.997       8.963       7.895       6.796       5.705       4.684       3.647       2.527       1.306      3.9024E-03
   3    9.997       8.888       7.720       6.483       5.270       4.355       3.447       2.421       1.260      3.7667E-03
   4    9.997       8.801       7.491       5.979       4.349       3.826       3.190       2.302       1.214      3.6273E-03
   5    9.997       8.754       7.329       5.418       2.369       3.239       3.011       2.241       1.194      3.5676E-03
   6    9.997       8.811       7.509       6.004       4.377       3.854       3.213       2.319       1.223      3.6542E-03
   7    9.997       8.909       7.761       6.538       5.332       4.415       3.499       2.459       1.280      3.8257E-03
   8    9.998       9.000       7.967       6.893       5.816       4.791       3.738       2.592       1.340      4.0038E-03
   9    9.998       9.064       8.101       7.102       6.071       5.013       3.896       2.689       1.385      4.1394E-03
  10    9.998       9.096       8.166       7.198       6.184       5.116       3.973       2.739       1.409      4.2108E-03

 HEAD WILL BE SAVED ON UNIT   51 AT END OF TIME STEP   98, STRESS PERIOD    4

 DRAWDOWN WILL BE SAVED ON UNIT   52 AT END OF TIME STEP   98, STRESS PERIOD    4
1
  VOLUMETRIC BUDGET FOR ENTIRE MODEL AT END OF TIME STEP   98, STRESS PERIOD   4
  ------------------------------------------------------------------------------

     CUMULATIVE VOLUMES      L**3       RATES FOR THIS TIME STEP      L**3/T
     ------------------                 ------------------------

           IN:                                      IN:
           ---                                      ---
             STORAGE =      520923.1562               STORAGE =         521.9317
       CONSTANT HEAD =           0.0000         CONSTANT HEAD =           0.0000
               WELLS =           0.0000                 WELLS =           0.0000
     HEAD DEP BOUNDS =       80088.6172       HEAD DEP BOUNDS =         632.8206

            TOTAL IN =      601011.7500              TOTAL IN =        1154.7523

          OUT:                                     OUT:
          ----                                     ----
             STORAGE =           0.0000               STORAGE =           0.0000
       CONSTANT HEAD =           0.0000         CONSTANT HEAD =           0.0000
               WELLS =       99000.0000                 WELLS =         500.0000
     HEAD DEP BOUNDS =      502013.8750       HEAD DEP BOUNDS =         654.7451

           TOTAL OUT =      601013.8750             TOTAL OUT =        1154.7451

            IN - OUT =          -2.1250              IN - OUT =       7.2021E-03

 PERCENT DISCREPANCY =          -0.00     PERCENT DISCREPANCY =           0.00






         TIME SUMMARY AT END OF TIME STEP   98 IN STRESS PERIOD    4
                    SECONDS     MINUTES      HOURS       DAYS        YEARS
                    -----------------------------------------------------------
   TIME STEP LENGTH  86400.      1440.0      24.000      1.0000     2.73785E-03
 STRESS PERIOD TIME 8.46720E+06 1.41120E+05  2352.0      98.000     0.26831    
         TOTAL TIME 2.58336E+07 4.30560E+05  7176.0      299.00     0.81862    
1
 
 SOLVING FOR HEAD 

 OUTPUT CONTROL FOR STRESS PERIOD    4   TIME STEP   99
    SAVE HEAD FOR ALL LAYERS
    SAVE DRAWDOWN FOR ALL LAYERS
    SAVE BUDGET
    PRINT HEAD FOR ALL LAYERS
    PRINT BUDGET
 UBDSV1 SAVING "         STORAGE" ON UNIT  53 AT TIME STEP 99, STRESS PERIOD   4
 UBDSV2 SAVING "   CONSTANT HEAD" ON UNIT  53 AT TIME STEP 99, STRESS PERIOD   4
 UBDSV1 SAVING "FLOW RIGHT FACE " ON UNIT  53 AT TIME STEP 99, STRESS PERIOD   4
 UBDSV1 SAVING "FLOW FRONT FACE " ON UNIT  53 AT TIME STEP 99, STRESS PERIOD   4
 UBDSV1 SAVING "FLOW LOWER FACE " ON UNIT  53 AT TIME STEP 99, STRESS PERIOD   4
1
              HEAD IN LAYER   1 AT END OF TIME STEP  99 IN STRESS PERIOD    4
  ---------------------------------------------------------------------------

            1           2           3           4           5           6           7           8           9          10
 ........................................................................................................................
   1    9.998       9.009       7.994       6.953       5.901       4.851       3.763       2.598       1.340      1.8598E-03
   2    9.998       8.969       7.905       6.808       5.719       4.697       3.660       2.538       1.314      1.8205E-03
   3    9.997       8.894       7.730       6.496       5.284       4.368       3.460       2.431       1.268      1.7534E-03
   4    9.997       8.808       7.502       5.994       4.349       3.838       3.201       2.312       1.221      1.6845E-03
   5    9.997       8.762       7.341       5.425       1.381       3.231       3.021       2.251       1.201      1.6551E-03
   6    9.997       8.818       7.520       6.019       4.377       3.866       3.224       2.329       1.230      1.6976E-03
   7    9.997       8.915       7.770       6.551       5.346       4.428       3.511       2.469       1.288      1.7823E-03
   8    9.998       9.006       7.975       6.905       5.829       4.804       3.750       2.603       1.347      1.8707E-03
   9    9.998       9.069       8.109       7.113       6.083       5.026       3.908       2.700       1.393      1.9381E-03
  10    9.998       9.101       8.174       7.208       6.196       5.129       3.986       2.749       1.417      1.9736E-03
1
              HEAD IN LAYER   2 AT END OF TIME STEP  99 IN STRESS PERIOD    4
  ---------------------------------------------------------------------------

            1           2           3           4           5           6           7           8           9          10
 ........................................................................................................................
   1    9.998       9.005       7.987       6.944       5.891       4.841       3.754       2.590       1.336      3.6703E-03
   2    9.997       8.965       7.898       6.799       5.709       4.687       3.650       2.531       1.309      3.5969E-03
   3    9.997       8.890       7.723       6.487       5.274       4.358       3.451       2.424       1.263      3.4711E-03
   4    9.997       8.804       7.494       5.983       4.340       3.829       3.193       2.305       1.216      3.3419E-03
   5    9.997       8.757       7.333       5.413       1.809       3.225       3.013       2.244       1.196      3.2865E-03
   6    9.997       8.813       7.512       6.008       4.368       3.856       3.216       2.322       1.225      3.3667E-03
   7    9.997       8.911       7.763       6.541       5.336       4.419       3.503       2.462       1.283      3.5257E-03
   8    9.998       9.002       7.969       6.896       5.819       4.794       3.741       2.596       1.343      3.6908E-03
   9    9.998       9.065       8.103       7.104       6.074       5.016       3.900       2.693       1.388      3.8165E-03
  10    9.998       9.097       8.168       7.200       6.187       5.119       3.977       2.742       1.412      3.8827E-03
1
              HEAD IN LAYER   3 AT END OF TIME STEP  99 IN STRESS PERIOD    4
  ---------------------------------------------------------------------------

            1           2           3           4           5           6           7           8           9          10
 ........................................................................................................................
   1    9.998       9.002       7.982       6.937       5.884       4.833       3.746       2.584       1.331      3.9476E-03
   2    9.997       8.962       7.893       6.792       5.701       4.679       3.643       2.525       1.305      3.8690E-03
   3    9.997       8.887       7.718       6.479       5.265       4.350       3.443       2.418       1.259      3.7341E-03
   4    9.997       8.800       7.488       5.976       4.339       3.821       3.185       2.299       1.212      3.5955E-03
   5    9.997       8.753       7.326       5.410       2.181       3.227       3.006       2.238       1.192      3.5362E-03
   6    9.997       8.810       7.507       6.000       4.367       3.849       3.209       2.316       1.221      3.6223E-03
   7    9.997       8.908       7.758       6.534       5.328       4.411       3.495       2.456       1.279      3.7929E-03
   8    9.998       8.999       7.964       6.890       5.811       4.787       3.734       2.590       1.339      3.9700E-03
   9    9.998       9.063       8.099       7.098       6.067       5.009       3.892       2.686       1.384      4.1049E-03
  10    9.998       9.094       8.164       7.194       6.180       5.112       3.970       2.736       1.408      4.1759E-03
1
              HEAD IN LAYER   4 AT END OF TIME STEP  99 IN STRESS PERIOD    4
  ---------------------------------------------------------------------------

            1           2           3           4           5           6           7           8           9          10
 ........................................................................................................................
   1    9.998       9.001       7.980       6.934       5.880       4.829       3.742       2.581       1.329      3.9716E-03
   2    9.997       8.960       7.890       6.789       5.697       4.675       3.639       2.521       1.302      3.8925E-03
   3    9.997       8.885       7.715       6.476       5.261       4.346       3.439       2.415       1.257      3.7567E-03
   4    9.997       8.799       7.485       5.972       4.340       3.817       3.182       2.296       1.210      3.6173E-03
   5    9.997       8.751       7.323       5.410       2.359       3.230       3.003       2.235       1.190      3.5577E-03
   6    9.997       8.808       7.504       5.997       4.369       3.845       3.205       2.313       1.219      3.6444E-03
   7    9.997       8.907       7.755       6.531       5.324       4.407       3.491       2.453       1.277      3.8161E-03
   8    9.998       8.998       7.962       6.886       5.808       4.783       3.730       2.586       1.337      3.9943E-03
   9    9.998       9.061       8.096       7.095       6.063       5.005       3.889       2.683       1.382      4.1301E-03
  10    9.998       9.093       8.161       7.191       6.176       5.108       3.966       2.733       1.406      4.2016E-03

 HEAD WILL BE SAVED ON UNIT   51 AT END OF TIME STEP   99, STRESS PERIOD    4

 DRAWDOWN WILL BE SAVED ON UNIT   52 AT END OF TIME STEP   99, STRESS PERIOD    4
1
  VOLUMETRIC BUDGET FOR ENTIRE MODEL AT END OF TIME STEP   99, STRESS PERIOD   4
  ------------------------------------------------------------------------------

     CUMULATIVE VOLUMES      L**3       RATES FOR THIS TIME STEP      L**3/T
     ------------------                 ------------------------

           IN:                                      IN:
           ---                                      ---
             STORAGE =      521441.8438               STORAGE =         518.6732
       CONSTANT HEAD =           0.0000         CONSTANT HEAD =           0.0000
               WELLS =           0.0000                 WELLS =           0.0000
     HEAD DEP BOUNDS =       80723.0312       HEAD DEP BOUNDS =         634.4109

            TOTAL IN =      602164.8750              TOTAL IN =        1153.0842

          OUT:                                     OUT:
          ----                                     ----
             STORAGE =           0.0000               STORAGE =           0.0000
       CONSTANT HEAD =           0.0000         CONSTANT HEAD =           0.0000
               WELLS =       99500.0000                 WELLS =         500.0000
     HEAD DEP BOUNDS =      502666.9688       HEAD DEP BOUNDS =         653.0783

           TOTAL OUT =      602167.0000             TOTAL OUT =        1153.0784

            IN - OUT =          -2.1250              IN - OUT =       5.8594E-03

 PERCENT DISCREPANCY =          -0.00     PERCENT DISCREPANCY =           0.00






         TIME SUMMARY AT END OF TIME STEP   99 IN STRESS PERIOD    4
                    SECONDS     MINUTES      HOURS       DAYS        YEARS
                    -----------------------------------------------------------
   TIME STEP LENGTH  86400.      1440.0      24.000      1.0000     2.73785E-03
 STRESS PERIOD TIME 8.55360E+06 1.42560E+05  2376.0      99.000     0.27105    
         TOTAL TIME 2.59200E+07 4.32000E+05  7200.0      300.00     0.82136    
1
 
 SOLVING FOR HEAD 

 OUTPUT CONTROL FOR STRESS PERIOD    4   TIME STEP  100
    SAVE HEAD FOR ALL LAYERS
    SAVE DRAWDOWN FOR ALL LAYERS
    SAVE BUDGET
    PRINT HEAD FOR ALL LAYERS
    PRINT BUDGET
 UBDSV1 SAVING "         STORAGE" ON UNIT  53 AT TIME STEP100, STRESS PERIOD   4
 UBDSV2 SAVING "   CONSTANT HEAD" ON UNIT  53 AT TIME STEP100, STRESS PERIOD   4
 UBDSV1 SAVING "FLOW RIGHT FACE " ON UNIT  53 AT TIME STEP100, STRESS PERIOD   4
 UBDSV1 SAVING "FLOW FRONT FACE " ON UNIT  53 AT TIME STEP100, STRESS PERIOD   4
 UBDSV1 SAVING "FLOW LOWER FACE " ON UNIT  53 AT TIME STEP100, STRESS PERIOD   4
1
              HEAD IN LAYER   1 AT END OF TIME STEP 100 IN STRESS PERIOD    4
  ---------------------------------------------------------------------------

            1           2           3           4           5           6           7           8           9          10
 ........................................................................................................................
   1    9.998       9.007       7.989       6.946       5.893       4.842       3.755       2.592       1.337      1.8548E-03
   2    9.998       8.966       7.899       6.801       5.710       4.688       3.652       2.532       1.310      1.8156E-03
   3    9.997       8.892       7.725       6.489       5.275       4.359       3.452       2.425       1.264      1.7485E-03
   4    9.997       8.806       7.497       5.987       4.340       3.829       3.193       2.306       1.217      1.6796E-03
   5    9.997       8.759       7.336       5.418       1.372       3.222       3.013       2.245       1.197      1.6500E-03
   6    9.997       8.815       7.515       6.011       4.369       3.857       3.217       2.323       1.226      1.6927E-03
   7    9.997       8.913       7.765       6.544       5.338       4.420       3.503       2.463       1.284      1.7775E-03
   8    9.998       9.003       7.970       6.898       5.821       4.796       3.742       2.597       1.344      1.8660E-03
   9    9.998       9.066       8.105       7.106       6.076       5.018       3.901       2.694       1.390      1.9334E-03
  10    9.998       9.098       8.169       7.202       6.188       5.121       3.978       2.744       1.414      1.9691E-03
1
              HEAD IN LAYER   2 AT END OF TIME STEP 100 IN STRESS PERIOD    4
  ---------------------------------------------------------------------------

            1           2           3           4           5           6           7           8           9          10
 ........................................................................................................................
   1    9.998       9.002       7.982       6.937       5.883       4.832       3.746       2.584       1.332      3.6611E-03
   2    9.997       8.962       7.892       6.791       5.700       4.678       3.643       2.525       1.306      3.5877E-03
   3    9.997       8.887       7.718       6.479       5.265       4.349       3.443       2.418       1.260      3.4619E-03
   4    9.997       8.801       7.489       5.976       4.331       3.820       3.185       2.299       1.213      3.3326E-03
   5    9.997       8.754       7.327       5.405       1.800       3.216       3.005       2.238       1.193      3.2773E-03
   6    9.997       8.810       7.507       6.001       4.360       3.847       3.208       2.316       1.222      3.3576E-03
   7    9.997       8.908       7.758       6.534       5.327       4.410       3.495       2.456       1.280      3.5167E-03
   8    9.998       8.999       7.964       6.889       5.811       4.786       3.734       2.590       1.340      3.6820E-03
   9    9.998       9.063       8.098       7.098       6.066       5.008       3.892       2.687       1.385      3.8079E-03
  10    9.998       9.094       8.163       7.193       6.179       5.111       3.970       2.737       1.409      3.8742E-03
1
              HEAD IN LAYER   3 AT END OF TIME STEP 100 IN STRESS PERIOD    4
  ---------------------------------------------------------------------------

            1           2           3           4           5           6           7           8           9          10
 ........................................................................................................................
   1    9.998       9.000       7.977       6.930       5.875       4.824       3.738       2.578       1.328      3.9378E-03
   2    9.997       8.959       7.887       6.785       5.692       4.670       3.635       2.518       1.301      3.8591E-03
   3    9.997       8.884       7.712       6.472       5.257       4.341       3.435       2.412       1.256      3.7242E-03
   4    9.997       8.798       7.483       5.968       4.330       3.812       3.177       2.293       1.209      3.5857E-03
   5    9.997       8.750       7.321       5.402       2.172       3.218       2.998       2.232       1.189      3.5264E-03
   6    9.997       8.807       7.501       5.993       4.359       3.840       3.201       2.310       1.218      3.6126E-03
   7    9.997       8.905       7.753       6.527       5.320       4.402       3.487       2.450       1.276      3.7834E-03
   8    9.997       8.996       7.959       6.883       5.803       4.778       3.726       2.584       1.336      3.9606E-03
   9    9.998       9.060       8.094       7.091       6.059       5.001       3.885       2.681       1.381      4.0957E-03
  10    9.998       9.092       8.159       7.187       6.172       5.104       3.962       2.730       1.405      4.1668E-03
1
              HEAD IN LAYER   4 AT END OF TIME STEP 100 IN STRESS PERIOD    4
  ---------------------------------------------------------------------------

            1           2           3           4           5           6           7           8           9          10
 ........................................................................................................................
   1    9.998       8.998       7.974       6.927       5.871       4.820       3.734       2.575       1.326      3.9618E-03
   2    9.997       8.958       7.885       6.781       5.689       4.666       3.631       2.515       1.299      3.8826E-03
   3    9.997       8.883       7.710       6.469       5.253       4.337       3.431       2.409       1.254      3.7468E-03
   4    9.997       8.796       7.480       5.964       4.331       3.809       3.174       2.290       1.207      3.6074E-03
   5    9.997       8.749       7.318       5.403       2.350       3.221       2.995       2.229       1.187      3.5479E-03
   6    9.997       8.806       7.499       5.989       4.360       3.836       3.197       2.307       1.216      3.6347E-03
   7    9.997       8.904       7.750       6.524       5.316       4.398       3.484       2.447       1.274      3.8065E-03
   8    9.997       8.995       7.957       6.879       5.800       4.774       3.723       2.581       1.333      3.9849E-03
   9    9.998       9.059       8.091       7.088       6.055       4.997       3.881       2.678       1.379      4.1209E-03
  10    9.998       9.091       8.156       7.184       6.168       5.100       3.959       2.727       1.403      4.1925E-03

 HEAD WILL BE SAVED ON UNIT   51 AT END OF TIME STEP  100, STRESS PERIOD    4

 DRAWDOWN WILL BE SAVED ON UNIT   52 AT END OF TIME STEP  100, STRESS PERIOD    4
1
  VOLUMETRIC BUDGET FOR ENTIRE MODEL AT END OF TIME STEP  100, STRESS PERIOD   4
  ------------------------------------------------------------------------------

     CUMULATIVE VOLUMES      L**3       RATES FOR THIS TIME STEP      L**3/T
     ------------------                 ------------------------

           IN:                                      IN:
           ---                                      ---
             STORAGE =      521957.2812               STORAGE =         515.4453
       CONSTANT HEAD =           0.0000         CONSTANT HEAD =           0.0000
               WELLS =           0.0000                 WELLS =           0.0000
     HEAD DEP BOUNDS =       81359.0234       HEAD DEP BOUNDS =         635.9916

            TOTAL IN =      603316.3125              TOTAL IN =        1151.4369

          OUT:                                     OUT:
          ----                                     ----
             STORAGE =           0.0000               STORAGE =           0.0000
       CONSTANT HEAD =           0.0000         CONSTANT HEAD =           0.0000
               WELLS =      100000.0000                 WELLS =         500.0000
     HEAD DEP BOUNDS =      503318.4062       HEAD DEP BOUNDS =         651.4235

           TOTAL OUT =      603318.3750             TOTAL OUT =        1151.4235

            IN - OUT =          -2.0625              IN - OUT =       1.3428E-02

 PERCENT DISCREPANCY =          -0.00     PERCENT DISCREPANCY =           0.00






         TIME SUMMARY AT END OF TIME STEP  100 IN STRESS PERIOD    4
                    SECONDS     MINUTES      HOURS       DAYS        YEARS
                    -----------------------------------------------------------
   TIME STEP LENGTH  86400.      1440.0      24.000      1.0000     2.73785E-03
 STRESS PERIOD TIME 8.64000E+06 1.44000E+05  2400.0      100.00     0.27379    
         TOTAL TIME 2.60064E+07 4.33440E+05  7224.0      301.00     0.82409    
1
1
                            STRESS PERIOD NO.    5, LENGTH =   100.0000    
                            -----------------------------------------------

                              NUMBER OF TIME STEPS =   100

                               MULTIPLIER FOR DELT =     1.000

                            INITIAL TIME STEP SIZE =   1.000000    

 WELL NO.  LAYER   ROW   COL   STRESS RATE         
 --------------------------------------------------
      1      1      5      5       0.000    

      1 WELL 

 REUSING NON-PARAMETER GHB CELLS FROM LAST STRESS PERIOD

     80 GHB CELLS
 
 SOLVING FOR HEAD 

 OUTPUT CONTROL FOR STRESS PERIOD    5   TIME STEP    1
    SAVE HEAD FOR ALL LAYERS
    SAVE DRAWDOWN FOR ALL LAYERS
    SAVE BUDGET
    PRINT HEAD FOR ALL LAYERS
    PRINT BUDGET
 UBDSV1 SAVING "         STORAGE" ON UNIT  53 AT TIME STEP  1, STRESS PERIOD   5
 UBDSV2 SAVING "   CONSTANT HEAD" ON UNIT  53 AT TIME STEP  1, STRESS PERIOD   5
 UBDSV1 SAVING "FLOW RIGHT FACE " ON UNIT  53 AT TIME STEP  1, STRESS PERIOD   5
 UBDSV1 SAVING "FLOW FRONT FACE " ON UNIT  53 AT TIME STEP  1, STRESS PERIOD   5
 UBDSV1 SAVING "FLOW LOWER FACE " ON UNIT  53 AT TIME STEP  1, STRESS PERIOD   5
1
              HEAD IN LAYER   1 AT END OF TIME STEP   1 IN STRESS PERIOD    5
  ---------------------------------------------------------------------------

            1           2           3           4           5           6           7           8           9          10
 ........................................................................................................................
   1    9.998       9.004       7.983       6.938       5.884       4.833       3.747       2.585       1.334      1.8499E-03
   2    9.997       8.963       7.894       6.793       5.702       4.680       3.644       2.526       1.307      1.8107E-03
   3    9.997       8.889       7.720       6.482       5.268       4.350       3.444       2.419       1.261      1.7434E-03
   4    9.997       8.803       7.492       5.981       4.342       3.822       3.185       2.300       1.214      1.6747E-03
   5    9.997       8.756       7.331       5.421       1.788       3.224       3.006       2.239       1.194      1.6452E-03
   6    9.997       8.812       7.510       6.006       4.371       3.849       3.209       2.317       1.223      1.6879E-03
   7    9.997       8.910       7.760       6.537       5.330       4.412       3.496       2.457       1.281      1.7727E-03
   8    9.998       9.000       7.965       6.891       5.813       4.787       3.735       2.591       1.341      1.8613E-03
   9    9.998       9.064       8.100       7.099       6.068       5.010       3.893       2.688       1.387      1.9287E-03
  10    9.998       9.095       8.164       7.195       6.180       5.112       3.971       2.738       1.411      1.9646E-03
1
              HEAD IN LAYER   2 AT END OF TIME STEP   1 IN STRESS PERIOD    5
  ---------------------------------------------------------------------------

            1           2           3           4           5           6           7           8           9          10
 ........................................................................................................................
   1    9.998       9.000       7.977       6.929       5.874       4.823       3.738       2.578       1.329      3.6520E-03
   2    9.997       8.959       7.887       6.784       5.692       4.670       3.635       2.519       1.302      3.5785E-03
   3    9.997       8.885       7.712       6.472       5.258       4.341       3.435       2.412       1.257      3.4527E-03
   4    9.997       8.798       7.484       5.972       4.344       3.814       3.177       2.293       1.210      3.3235E-03
   5    9.997       8.751       7.324       5.419       2.152       3.228       2.999       2.232       1.190      3.2682E-03
   6    9.997       8.808       7.502       5.997       4.372       3.842       3.201       2.310       1.219      3.3486E-03
   7    9.997       8.906       7.753       6.528       5.321       4.402       3.487       2.450       1.277      3.5079E-03
   8    9.998       8.996       7.959       6.882       5.803       4.778       3.726       2.584       1.337      3.6733E-03
   9    9.998       9.060       8.093       7.091       6.058       5.000       3.885       2.681       1.382      3.7993E-03
  10    9.998       9.092       8.158       7.187       6.171       5.103       3.962       2.731       1.406      3.8657E-03
1
              HEAD IN LAYER   3 AT END OF TIME STEP   1 IN STRESS PERIOD    5
  ---------------------------------------------------------------------------

            1           2           3           4           5           6           7           8           9          10
 ........................................................................................................................
   1    9.997       8.997       7.972       6.923       5.867       4.815       3.730       2.572       1.325      3.9281E-03
   2    9.997       8.956       7.882       6.778       5.684       4.662       3.627       2.512       1.298      3.8494E-03
   3    9.997       8.881       7.707       6.465       5.251       4.333       3.427       2.406       1.252      3.7144E-03
   4    9.997       8.795       7.478       5.966       4.349       3.808       3.170       2.287       1.206      3.5759E-03
   5    9.997       8.748       7.318       5.423       2.465       3.237       2.993       2.227       1.186      3.5167E-03
   6    9.997       8.805       7.497       5.991       4.378       3.836       3.194       2.305       1.215      3.6030E-03
   7    9.997       8.903       7.748       6.521       5.314       4.395       3.480       2.444       1.273      3.7739E-03
   8    9.997       8.994       7.954       6.876       5.796       4.770       3.719       2.578       1.332      3.9513E-03
   9    9.998       9.057       8.089       7.085       6.051       4.993       3.878       2.675       1.378      4.0866E-03
  10    9.998       9.089       8.154       7.181       6.164       5.096       3.955       2.725       1.402      4.1577E-03
1
              HEAD IN LAYER   4 AT END OF TIME STEP   1 IN STRESS PERIOD    5
  ---------------------------------------------------------------------------

            1           2           3           4           5           6           7           8           9          10
 ........................................................................................................................
   1    9.997       8.995       7.969       6.920       5.863       4.811       3.727       2.569       1.322      3.9520E-03
   2    9.997       8.955       7.880       6.774       5.680       4.658       3.623       2.509       1.296      3.8728E-03
   3    9.997       8.880       7.705       6.462       5.247       4.329       3.424       2.403       1.250      3.7370E-03
   4    9.997       8.793       7.476       5.963       4.354       3.805       3.166       2.284       1.204      3.5976E-03
   5    9.997       8.746       7.316       5.427       2.616       3.243       2.990       2.224       1.184      3.5381E-03
   6    9.997       8.803       7.494       5.988       4.383       3.833       3.190       2.302       1.213      3.6250E-03
   7    9.997       8.901       7.745       6.518       5.310       4.391       3.476       2.441       1.270      3.7970E-03
   8    9.997       8.992       7.952       6.873       5.792       4.766       3.715       2.575       1.330      3.9756E-03
   9    9.998       9.056       8.087       7.082       6.048       4.989       3.874       2.672       1.376      4.1117E-03
  10    9.998       9.088       8.152       7.178       6.161       5.092       3.952       2.722       1.400      4.1834E-03

 HEAD WILL BE SAVED ON UNIT   51 AT END OF TIME STEP    1, STRESS PERIOD    5

 DRAWDOWN WILL BE SAVED ON UNIT   52 AT END OF TIME STEP    1, STRESS PERIOD    5
1
  VOLUMETRIC BUDGET FOR ENTIRE MODEL AT END OF TIME STEP    1, STRESS PERIOD   5
  ------------------------------------------------------------------------------

     CUMULATIVE VOLUMES      L**3       RATES FOR THIS TIME STEP      L**3/T
     ------------------                 ------------------------

           IN:                                      IN:
           ---                                      ---
             STORAGE =      522411.1250               STORAGE =         453.8416
       CONSTANT HEAD =           0.0000         CONSTANT HEAD =           0.0000
               WELLS =           0.0000                 WELLS =           0.0000
     HEAD DEP BOUNDS =       81996.5625       HEAD DEP BOUNDS =         637.5382

            TOTAL IN =      604407.6875              TOTAL IN =        1091.3798

          OUT:                                     OUT:
          ----                                     ----
             STORAGE =         441.5887               STORAGE =         441.5887
       CONSTANT HEAD =           0.0000         CONSTANT HEAD =           0.0000
               WELLS =      100000.0000                 WELLS =           0.0000
     HEAD DEP BOUNDS =      503968.1875       HEAD DEP BOUNDS =         649.7809

           TOTAL OUT =      604409.7500             TOTAL OUT =        1091.3696

            IN - OUT =          -2.0625              IN - OUT =       1.0132E-02

 PERCENT DISCREPANCY =          -0.00     PERCENT DISCREPANCY =           0.00






         TIME SUMMARY AT END OF TIME STEP    1 IN STRESS PERIOD    5
                    SECONDS     MINUTES      HOURS       DAYS        YEARS
                    -----------------------------------------------------------
   TIME STEP LENGTH  86400.      1440.0      24.000      1.0000     2.73785E-03
 STRESS PERIOD TIME  86400.      1440.0      24.000      1.0000     2.73785E-03
         TOTAL TIME 2.60928E+07 4.34880E+05  7248.0      302.00     0.82683    
1
 
 SOLVING FOR HEAD 

 OUTPUT CONTROL FOR STRESS PERIOD    5   TIME STEP    2
    SAVE HEAD FOR ALL LAYERS
    SAVE DRAWDOWN FOR ALL LAYERS
    SAVE BUDGET
    PRINT HEAD FOR ALL LAYERS
    PRINT BUDGET
 UBDSV1 SAVING "         STORAGE" ON UNIT  53 AT TIME STEP  2, STRESS PERIOD   5
 UBDSV2 SAVING "   CONSTANT HEAD" ON UNIT  53 AT TIME STEP  2, STRESS PERIOD   5
 UBDSV1 SAVING "FLOW RIGHT FACE " ON UNIT  53 AT TIME STEP  2, STRESS PERIOD   5
 UBDSV1 SAVING "FLOW FRONT FACE " ON UNIT  53 AT TIME STEP  2, STRESS PERIOD   5
 UBDSV1 SAVING "FLOW LOWER FACE " ON UNIT  53 AT TIME STEP  2, STRESS PERIOD   5
1
              HEAD IN LAYER   1 AT END OF TIME STEP   2 IN STRESS PERIOD    5
  ---------------------------------------------------------------------------

            1           2           3           4           5           6           7           8           9          10
 ........................................................................................................................
   1    9.998       9.001       7.978       6.931       5.876       4.825       3.739       2.579       1.330      1.8452E-03
   2    9.997       8.961       7.889       6.786       5.694       4.671       3.636       2.520       1.304      1.8058E-03
   3    9.997       8.886       7.714       6.475       5.261       4.342       3.436       2.413       1.258      1.7385E-03
   4    9.997       8.800       7.487       5.977       4.353       3.816       3.178       2.294       1.211      1.6698E-03
   5    9.997       8.754       7.328       5.433       2.149       3.235       3.000       2.233       1.191      1.6405E-03
   6    9.997       8.810       7.505       6.002       4.382       3.844       3.202       2.311       1.220      1.6833E-03
   7    9.997       8.907       7.755       6.530       5.324       4.404       3.488       2.451       1.278      1.7680E-03
   8    9.998       8.998       7.960       6.884       5.805       4.779       3.727       2.586       1.338      1.8566E-03
   9    9.998       9.061       8.095       7.092       6.060       5.002       3.886       2.683       1.384      1.9242E-03
  10    9.998       9.093       8.160       7.188       6.173       5.104       3.964       2.733       1.408      1.9600E-03
1
              HEAD IN LAYER   2 AT END OF TIME STEP   2 IN STRESS PERIOD    5
  ---------------------------------------------------------------------------

            1           2           3           4           5           6           7           8           9          10
 ........................................................................................................................
   1    9.998       8.997       7.971       6.922       5.866       4.815       3.730       2.572       1.326      3.6429E-03
   2    9.997       8.956       7.882       6.777       5.684       4.661       3.627       2.513       1.299      3.5694E-03
   3    9.997       8.882       7.707       6.466       5.253       4.333       3.427       2.406       1.253      3.4435E-03
   4    9.997       8.796       7.480       5.971       4.364       3.811       3.170       2.287       1.206      3.3144E-03
   5    9.997       8.749       7.322       5.441       2.470       3.249       2.994       2.227       1.186      3.2592E-03
   6    9.997       8.805       7.498       5.996       4.393       3.839       3.194       2.305       1.216      3.3397E-03
   7    9.997       8.903       7.748       6.522       5.316       4.395       3.480       2.444       1.273      3.4991E-03
   8    9.997       8.994       7.954       6.876       5.795       4.770       3.719       2.579       1.333      3.6646E-03
   9    9.998       9.057       8.088       7.084       6.050       4.992       3.878       2.676       1.379      3.7908E-03
  10    9.998       9.089       8.153       7.180       6.163       5.095       3.955       2.726       1.403      3.8573E-03
1
              HEAD IN LAYER   3 AT END OF TIME STEP   2 IN STRESS PERIOD    5
  ---------------------------------------------------------------------------

            1           2           3           4           5           6           7           8           9          10
 ........................................................................................................................
   1    9.997       8.994       7.967       6.916       5.859       4.807       3.723       2.566       1.321      3.9184E-03
   2    9.997       8.954       7.877       6.771       5.676       4.653       3.619       2.507       1.295      3.8396E-03
   3    9.997       8.879       7.702       6.459       5.246       4.325       3.420       2.400       1.249      3.7047E-03
   4    9.997       8.792       7.474       5.966       4.376       3.807       3.163       2.281       1.202      3.5662E-03
   5    9.997       8.746       7.317       5.451       2.741       3.264       2.989       2.221       1.182      3.5072E-03
   6    9.997       8.802       7.493       5.991       4.405       3.835       3.187       2.299       1.212      3.5935E-03
   7    9.997       8.900       7.743       6.515       5.310       4.387       3.473       2.438       1.269      3.7645E-03
   8    9.997       8.991       7.949       6.869       5.788       4.762       3.711       2.573       1.329      3.9421E-03
   9    9.998       9.055       8.084       7.078       6.043       4.985       3.870       2.670       1.375      4.0775E-03
  10    9.998       9.087       8.149       7.174       6.156       5.088       3.948       2.719       1.399      4.1487E-03
1
              HEAD IN LAYER   4 AT END OF TIME STEP   2 IN STRESS PERIOD    5
  ---------------------------------------------------------------------------

            1           2           3           4           5           6           7           8           9          10
 ........................................................................................................................
   1    9.997       8.993       7.964       6.913       5.855       4.803       3.719       2.563       1.319      3.9423E-03
   2    9.997       8.952       7.874       6.767       5.672       4.649       3.616       2.503       1.293      3.8630E-03
   3    9.997       8.877       7.700       6.456       5.243       4.322       3.416       2.397       1.247      3.7272E-03
   4    9.997       8.791       7.472       5.964       4.383       3.805       3.160       2.278       1.200      3.5879E-03
   5    9.997       8.744       7.315       5.457       2.871       3.272       2.986       2.218       1.181      3.5286E-03
   6    9.997       8.800       7.490       5.989       4.412       3.833       3.184       2.296       1.210      3.6155E-03
   7    9.997       8.899       7.741       6.512       5.307       4.384       3.469       2.435       1.267      3.7876E-03
   8    9.997       8.990       7.947       6.866       5.785       4.758       3.708       2.569       1.327      3.9664E-03
   9    9.998       9.054       8.082       7.075       6.040       4.981       3.867       2.667       1.373      4.1026E-03
  10    9.998       9.085       8.147       7.171       6.153       5.084       3.944       2.716       1.397      4.1743E-03

 HEAD WILL BE SAVED ON UNIT   51 AT END OF TIME STEP    2, STRESS PERIOD    5

 DRAWDOWN WILL BE SAVED ON UNIT   52 AT END OF TIME STEP    2, STRESS PERIOD    5
1
  VOLUMETRIC BUDGET FOR ENTIRE MODEL AT END OF TIME STEP    2, STRESS PERIOD   5
  ------------------------------------------------------------------------------

     CUMULATIVE VOLUMES      L**3       RATES FOR THIS TIME STEP      L**3/T
     ------------------                 ------------------------

           IN:                                      IN:
           ---                                      ---
             STORAGE =      522845.1562               STORAGE =         434.0451
       CONSTANT HEAD =           0.0000         CONSTANT HEAD =           0.0000
               WELLS =           0.0000                 WELLS =           0.0000
     HEAD DEP BOUNDS =       82635.6172       HEAD DEP BOUNDS =         639.0529

            TOTAL IN =      605480.7500              TOTAL IN =        1073.0979

          OUT:                                     OUT:
          ----                                     ----
             STORAGE =         866.5225               STORAGE =         424.9338
       CONSTANT HEAD =           0.0000         CONSTANT HEAD =           0.0000
               WELLS =      100000.0000                 WELLS =           0.0000
     HEAD DEP BOUNDS =      504616.3438       HEAD DEP BOUNDS =         648.1541

           TOTAL OUT =      605482.8750             TOTAL OUT =        1073.0879

            IN - OUT =          -2.1250              IN - OUT =       1.0010E-02

 PERCENT DISCREPANCY =          -0.00     PERCENT DISCREPANCY =           0.00






         TIME SUMMARY AT END OF TIME STEP    2 IN STRESS PERIOD    5
                    SECONDS     MINUTES      HOURS       DAYS        YEARS
                    -----------------------------------------------------------
   TIME STEP LENGTH  86400.      1440.0      24.000      1.0000     2.73785E-03
 STRESS PERIOD TIME 1.72800E+05  2880.0      48.000      2.0000     5.47570E-03
         TOTAL TIME 2.61792E+07 4.36320E+05  7272.0      303.00     0.82957    
1
 
 SOLVING FOR HEAD 

 OUTPUT CONTROL FOR STRESS PERIOD    5   TIME STEP    3
    SAVE HEAD FOR ALL LAYERS
    SAVE DRAWDOWN FOR ALL LAYERS
    SAVE BUDGET
    PRINT HEAD FOR ALL LAYERS
    PRINT BUDGET
 UBDSV1 SAVING "         STORAGE" ON UNIT  53 AT TIME STEP  3, STRESS PERIOD   5
 UBDSV2 SAVING "   CONSTANT HEAD" ON UNIT  53 AT TIME STEP  3, STRESS PERIOD   5
 UBDSV1 SAVING "FLOW RIGHT FACE " ON UNIT  53 AT TIME STEP  3, STRESS PERIOD   5
 UBDSV1 SAVING "FLOW FRONT FACE " ON UNIT  53 AT TIME STEP  3, STRESS PERIOD   5
 UBDSV1 SAVING "FLOW LOWER FACE " ON UNIT  53 AT TIME STEP  3, STRESS PERIOD   5
1
              HEAD IN LAYER   1 AT END OF TIME STEP   3 IN STRESS PERIOD    5
  ---------------------------------------------------------------------------

            1           2           3           4           5           6           7           8           9          10
 ........................................................................................................................
   1    9.998       8.998       7.973       6.924       5.868       4.816       3.731       2.573       1.327      1.8403E-03
   2    9.997       8.958       7.884       6.779       5.685       4.662       3.628       2.514       1.300      1.8009E-03
   3    9.997       8.884       7.709       6.468       5.255       4.334       3.428       2.407       1.254      1.7337E-03
   4    9.997       8.798       7.482       5.975       4.372       3.813       3.171       2.288       1.207      1.6650E-03
   5    9.997       8.751       7.326       5.451       2.465       3.254       2.995       2.227       1.187      1.6358E-03
   6    9.997       8.807       7.501       6.000       4.401       3.841       3.195       2.305       1.217      1.6785E-03
   7    9.997       8.905       7.750       6.524       5.318       4.396       3.481       2.445       1.275      1.7634E-03
   8    9.998       8.995       7.955       6.877       5.797       4.771       3.720       2.580       1.335      1.8519E-03
   9    9.998       9.059       8.090       7.086       6.052       4.994       3.879       2.677       1.381      1.9198E-03
  10    9.998       9.090       8.155       7.182       6.165       5.097       3.957       2.727       1.405      1.9554E-03
1
              HEAD IN LAYER   2 AT END OF TIME STEP   3 IN STRESS PERIOD    5
  ---------------------------------------------------------------------------

            1           2           3           4           5           6           7           8           9          10
 ........................................................................................................................
   1    9.997       8.994       7.966       6.915       5.858       4.806       3.722       2.566       1.322      3.6339E-03
   2    9.997       8.954       7.877       6.770       5.676       4.653       3.619       2.507       1.296      3.5604E-03
   3    9.997       8.879       7.702       6.460       5.248       4.326       3.420       2.400       1.250      3.4345E-03
   4    9.997       8.793       7.476       5.971       4.389       3.810       3.163       2.282       1.203      3.3054E-03
   5    9.997       8.747       7.321       5.467       2.747       3.274       2.990       2.221       1.183      3.2504E-03
   6    9.997       8.803       7.494       5.996       4.418       3.838       3.187       2.299       1.212      3.3309E-03
   7    9.997       8.901       7.743       6.516       5.312       4.388       3.473       2.439       1.270      3.4903E-03
   8    9.997       8.991       7.949       6.869       5.788       4.762       3.711       2.573       1.330      3.6560E-03
   9    9.998       9.055       8.084       7.077       6.043       4.984       3.870       2.670       1.376      3.7824E-03
  10    9.998       9.087       8.149       7.174       6.156       5.087       3.948       2.720       1.400      3.8489E-03
1
              HEAD IN LAYER   3 AT END OF TIME STEP   3 IN STRESS PERIOD    5
  ---------------------------------------------------------------------------

            1           2           3           4           5           6           7           8           9          10
 ........................................................................................................................
   1    9.997       8.992       7.961       6.909       5.850       4.798       3.715       2.560       1.318      3.9088E-03
   2    9.997       8.951       7.872       6.764       5.669       4.645       3.612       2.501       1.291      3.8300E-03
   3    9.997       8.876       7.697       6.454       5.243       4.318       3.412       2.394       1.246      3.6950E-03
   4    9.997       8.790       7.471       5.969       4.406       3.808       3.157       2.276       1.199      3.5566E-03
   5    9.997       8.744       7.317       5.482       2.983       3.294       2.986       2.216       1.179      3.4977E-03
   6    9.997       8.800       7.490       5.994       4.435       3.836       3.181       2.293       1.208      3.5841E-03
   7    9.997       8.898       7.739       6.510       5.307       4.381       3.466       2.433       1.266      3.7552E-03
   8    9.997       8.989       7.944       6.863       5.781       4.754       3.704       2.567       1.326      3.9330E-03
   9    9.998       9.052       8.079       7.071       6.036       4.977       3.863       2.664       1.372      4.0685E-03
  10    9.998       9.084       8.144       7.168       6.149       5.080       3.941       2.714       1.396      4.1398E-03
1
              HEAD IN LAYER   4 AT END OF TIME STEP   3 IN STRESS PERIOD    5
  ---------------------------------------------------------------------------

            1           2           3           4           5           6           7           8           9          10
 ........................................................................................................................
   1    9.997       8.990       7.959       6.905       5.847       4.794       3.711       2.557       1.316      3.9326E-03
   2    9.997       8.949       7.869       6.760       5.665       4.641       3.608       2.498       1.289      3.8534E-03
   3    9.997       8.875       7.695       6.451       5.240       4.315       3.409       2.391       1.244      3.7176E-03
   4    9.997       8.788       7.469       5.968       4.416       3.807       3.154       2.273       1.197      3.5783E-03
   5    9.997       8.742       7.315       5.491       3.097       3.304       2.984       2.213       1.177      3.5191E-03
   6    9.997       8.798       7.487       5.993       4.445       3.835       3.178       2.290       1.207      3.6061E-03
   7    9.997       8.896       7.736       6.507       5.304       4.377       3.462       2.430       1.264      3.7782E-03
   8    9.997       8.987       7.942       6.860       5.777       4.751       3.701       2.564       1.324      3.9572E-03
   9    9.998       9.051       8.077       7.068       6.032       4.973       3.860       2.661       1.370      4.0936E-03
  10    9.998       9.083       8.142       7.165       6.145       5.076       3.937       2.711       1.394      4.1654E-03

 HEAD WILL BE SAVED ON UNIT   51 AT END OF TIME STEP    3, STRESS PERIOD    5

 DRAWDOWN WILL BE SAVED ON UNIT   52 AT END OF TIME STEP    3, STRESS PERIOD    5
1
  VOLUMETRIC BUDGET FOR ENTIRE MODEL AT END OF TIME STEP    3, STRESS PERIOD   5
  ------------------------------------------------------------------------------

     CUMULATIVE VOLUMES      L**3       RATES FOR THIS TIME STEP      L**3/T
     ------------------                 ------------------------

           IN:                                      IN:
           ---                                      ---
             STORAGE =      523258.0312               STORAGE =         412.8851
       CONSTANT HEAD =           0.0000         CONSTANT HEAD =           0.0000
               WELLS =           0.0000                 WELLS =           0.0000
     HEAD DEP BOUNDS =       83276.1406       HEAD DEP BOUNDS =         640.5258

            TOTAL IN =      606534.1875              TOTAL IN =        1053.4109

          OUT:                                     OUT:
          ----                                     ----
             STORAGE =        1273.3887               STORAGE =         406.8661
       CONSTANT HEAD =           0.0000         CONSTANT HEAD =           0.0000
               WELLS =      100000.0000                 WELLS =           0.0000
     HEAD DEP BOUNDS =      505262.8750       HEAD DEP BOUNDS =         646.5392

           TOTAL OUT =      606536.2500             TOTAL OUT =        1053.4054

            IN - OUT =          -2.0625              IN - OUT =       5.4932E-03

 PERCENT DISCREPANCY =          -0.00     PERCENT DISCREPANCY =           0.00






         TIME SUMMARY AT END OF TIME STEP    3 IN STRESS PERIOD    5
                    SECONDS     MINUTES      HOURS       DAYS        YEARS
                    -----------------------------------------------------------
   TIME STEP LENGTH  86400.      1440.0      24.000      1.0000     2.73785E-03
 STRESS PERIOD TIME 2.59200E+05  4320.0      72.000      3.0000     8.21355E-03
         TOTAL TIME 2.62656E+07 4.37760E+05  7296.0      304.00     0.83231    
1
 
 SOLVING FOR HEAD 

 OUTPUT CONTROL FOR STRESS PERIOD    5   TIME STEP    4
    SAVE HEAD FOR ALL LAYERS
    SAVE DRAWDOWN FOR ALL LAYERS
    SAVE BUDGET
    PRINT HEAD FOR ALL LAYERS
    PRINT BUDGET
 UBDSV1 SAVING "         STORAGE" ON UNIT  53 AT TIME STEP  4, STRESS PERIOD   5
 UBDSV2 SAVING "   CONSTANT HEAD" ON UNIT  53 AT TIME STEP  4, STRESS PERIOD   5
 UBDSV1 SAVING "FLOW RIGHT FACE " ON UNIT  53 AT TIME STEP  4, STRESS PERIOD   5
 UBDSV1 SAVING "FLOW FRONT FACE " ON UNIT  53 AT TIME STEP  4, STRESS PERIOD   5
 UBDSV1 SAVING "FLOW LOWER FACE " ON UNIT  53 AT TIME STEP  4, STRESS PERIOD   5
1
              HEAD IN LAYER   1 AT END OF TIME STEP   4 IN STRESS PERIOD    5
  ---------------------------------------------------------------------------

            1           2           3           4           5           6           7           8           9          10
 ........................................................................................................................
   1    9.998       8.996       7.968       6.917       5.859       4.807       3.724       2.568       1.324      1.8355E-03
   2    9.997       8.955       7.878       6.772       5.678       4.654       3.620       2.508       1.297      1.7961E-03
   3    9.997       8.881       7.704       6.463       5.251       4.327       3.421       2.401       1.251      1.7289E-03
   4    9.997       8.795       7.479       5.975       4.395       3.812       3.164       2.282       1.204      1.6603E-03
   5    9.997       8.749       7.324       5.476       2.741       3.278       2.991       2.222       1.184      1.6311E-03
   6    9.997       8.805       7.497       6.001       4.424       3.840       3.188       2.300       1.213      1.6738E-03
   7    9.997       8.902       7.745       6.518       5.314       4.389       3.474       2.440       1.271      1.7587E-03
   8    9.998       8.993       7.951       6.871       5.790       4.763       3.713       2.574       1.332      1.8473E-03
   9    9.998       9.056       8.085       7.079       6.044       4.986       3.872       2.672       1.378      1.9152E-03
  10    9.998       9.088       8.150       7.175       6.157       5.089       3.949       2.721       1.402      1.9509E-03
1
              HEAD IN LAYER   2 AT END OF TIME STEP   4 IN STRESS PERIOD    5
  ---------------------------------------------------------------------------

            1           2           3           4           5           6           7           8           9          10
 ........................................................................................................................
   1    9.997       8.992       7.961       6.908       5.850       4.798       3.715       2.560       1.319      3.6249E-03
   2    9.997       8.951       7.872       6.763       5.668       4.644       3.611       2.501       1.292      3.5514E-03
   3    9.997       8.877       7.698       6.455       5.245       4.319       3.412       2.394       1.247      3.4255E-03
   4    9.997       8.791       7.473       5.974       4.418       3.811       3.157       2.276       1.200      3.2965E-03
   5    9.997       8.745       7.321       5.497       2.990       3.303       2.987       2.216       1.180      3.2416E-03
   6    9.997       8.800       7.491       5.999       4.447       3.839       3.182       2.293       1.209      3.3221E-03
   7    9.997       8.898       7.739       6.511       5.309       4.381       3.465       2.433       1.267      3.4817E-03
   8    9.997       8.989       7.944       6.863       5.781       4.754       3.704       2.567       1.327      3.6475E-03
   9    9.998       9.052       8.079       7.071       6.035       4.976       3.863       2.665       1.373      3.7740E-03
  10    9.998       9.084       8.144       7.167       6.148       5.079       3.941       2.715       1.397      3.8406E-03
1
              HEAD IN LAYER   3 AT END OF TIME STEP   4 IN STRESS PERIOD    5
  ---------------------------------------------------------------------------

            1           2           3           4           5           6           7           8           9          10
 ........................................................................................................................
   1    9.997       8.989       7.956       6.902       5.842       4.790       3.707       2.554       1.315      3.8992E-03
   2    9.997       8.948       7.867       6.757       5.661       4.637       3.604       2.495       1.288      3.8204E-03
   3    9.997       8.874       7.693       6.449       5.241       4.312       3.405       2.388       1.243      3.6855E-03
   4    9.997       8.788       7.468       5.973       4.439       3.811       3.152       2.270       1.196      3.5472E-03
   5    9.997       8.742       7.318       5.516       3.196       3.326       2.984       2.211       1.176      3.4885E-03
   6    9.997       8.797       7.487       5.998       4.468       3.839       3.176       2.288       1.205      3.5748E-03
   7    9.997       8.895       7.734       6.506       5.305       4.375       3.459       2.427       1.263      3.7460E-03
   8    9.997       8.986       7.940       6.856       5.774       4.747       3.697       2.561       1.323      3.9238E-03
   9    9.998       9.050       8.074       7.065       6.028       4.969       3.856       2.659       1.369      4.0595E-03
  10    9.998       9.082       8.140       7.161       6.141       5.072       3.934       2.709       1.393      4.1309E-03
1
              HEAD IN LAYER   4 AT END OF TIME STEP   4 IN STRESS PERIOD    5
  ---------------------------------------------------------------------------

            1           2           3           4           5           6           7           8           9          10
 ........................................................................................................................
   1    9.997       8.987       7.954       6.899       5.839       4.786       3.704       2.551       1.313      3.9230E-03
   2    9.997       8.947       7.864       6.754       5.658       4.633       3.600       2.492       1.286      3.8438E-03
   3    9.997       8.872       7.690       6.446       5.239       4.309       3.402       2.385       1.241      3.7080E-03
   4    9.997       8.786       7.466       5.973       4.450       3.811       3.149       2.267       1.194      3.5688E-03
   5    9.997       8.740       7.317       5.526       3.296       3.338       2.983       2.208       1.174      3.5099E-03
   6    9.997       8.796       7.485       5.998       4.479       3.839       3.173       2.285       1.203      3.5967E-03
   7    9.997       8.894       7.732       6.503       5.303       4.372       3.455       2.424       1.261      3.7690E-03
   8    9.997       8.985       7.937       6.853       5.771       4.743       3.693       2.558       1.321      3.9480E-03
   9    9.998       9.049       8.072       7.062       6.025       4.965       3.852       2.656       1.367      4.0846E-03
  10    9.998       9.081       8.137       7.158       6.138       5.068       3.930       2.706       1.391      4.1564E-03

 HEAD WILL BE SAVED ON UNIT   51 AT END OF TIME STEP    4, STRESS PERIOD    5

 DRAWDOWN WILL BE SAVED ON UNIT   52 AT END OF TIME STEP    4, STRESS PERIOD    5
1
  VOLUMETRIC BUDGET FOR ENTIRE MODEL AT END OF TIME STEP    4, STRESS PERIOD   5
  ------------------------------------------------------------------------------

     CUMULATIVE VOLUMES      L**3       RATES FOR THIS TIME STEP      L**3/T
     ------------------                 ------------------------

           IN:                                      IN:
           ---                                      ---
             STORAGE =      523649.9375               STORAGE =         391.8966
       CONSTANT HEAD =           0.0000         CONSTANT HEAD =           0.0000
               WELLS =           0.0000                 WELLS =           0.0000
     HEAD DEP BOUNDS =       83918.1172       HEAD DEP BOUNDS =         641.9777

            TOTAL IN =      607568.0625              TOTAL IN =        1033.8744

          OUT:                                     OUT:
          ----                                     ----
             STORAGE =        1662.3029               STORAGE =         388.9142
       CONSTANT HEAD =           0.0000         CONSTANT HEAD =           0.0000
               WELLS =      100000.0000                 WELLS =           0.0000
     HEAD DEP BOUNDS =      505907.8125       HEAD DEP BOUNDS =         644.9371

           TOTAL OUT =      607570.1250             TOTAL OUT =        1033.8513

            IN - OUT =          -2.0625              IN - OUT =       2.3071E-02

 PERCENT DISCREPANCY =          -0.00     PERCENT DISCREPANCY =           0.00






         TIME SUMMARY AT END OF TIME STEP    4 IN STRESS PERIOD    5
                    SECONDS     MINUTES      HOURS       DAYS        YEARS
                    -----------------------------------------------------------
   TIME STEP LENGTH  86400.      1440.0      24.000      1.0000     2.73785E-03
 STRESS PERIOD TIME 3.45600E+05  5760.0      96.000      4.0000     1.09514E-02
         TOTAL TIME 2.63520E+07 4.39200E+05  7320.0      305.00     0.83504    
1
 
 SOLVING FOR HEAD 

 OUTPUT CONTROL FOR STRESS PERIOD    5   TIME STEP    5
    SAVE HEAD FOR ALL LAYERS
    SAVE DRAWDOWN FOR ALL LAYERS
    SAVE BUDGET
    PRINT HEAD FOR ALL LAYERS
    PRINT BUDGET
 UBDSV1 SAVING "         STORAGE" ON UNIT  53 AT TIME STEP  5, STRESS PERIOD   5
 UBDSV2 SAVING "   CONSTANT HEAD" ON UNIT  53 AT TIME STEP  5, STRESS PERIOD   5
 UBDSV1 SAVING "FLOW RIGHT FACE " ON UNIT  53 AT TIME STEP  5, STRESS PERIOD   5
 UBDSV1 SAVING "FLOW FRONT FACE " ON UNIT  53 AT TIME STEP  5, STRESS PERIOD   5
 UBDSV1 SAVING "FLOW LOWER FACE " ON UNIT  53 AT TIME STEP  5, STRESS PERIOD   5
1
              HEAD IN LAYER   1 AT END OF TIME STEP   5 IN STRESS PERIOD    5
  ---------------------------------------------------------------------------

            1           2           3           4           5           6           7           8           9          10
 ........................................................................................................................
   1    9.998       8.993       7.963       6.910       5.851       4.799       3.716       2.562       1.320      1.8307E-03
   2    9.997       8.953       7.873       6.765       5.670       4.646       3.613       2.502       1.294      1.7913E-03
   3    9.997       8.878       7.700       6.457       5.247       4.320       3.413       2.395       1.248      1.7242E-03
   4    9.997       8.793       7.475       5.978       4.423       3.813       3.158       2.277       1.201      1.6555E-03
   5    9.997       8.747       7.324       5.504       2.984       3.306       2.988       2.217       1.181      1.6264E-03
   6    9.997       8.802       7.494       6.003       4.452       3.841       3.182       2.294       1.210      1.6692E-03
   7    9.997       8.900       7.741       6.513       5.311       4.383       3.466       2.434       1.268      1.7541E-03
   8    9.998       8.990       7.946       6.864       5.782       4.755       3.705       2.569       1.329      1.8428E-03
   9    9.998       9.054       8.080       7.072       6.037       4.978       3.864       2.666       1.375      1.9106E-03
  10    9.998       9.085       8.145       7.168       6.150       5.081       3.942       2.716       1.399      1.9465E-03
1
              HEAD IN LAYER   2 AT END OF TIME STEP   5 IN STRESS PERIOD    5
  ---------------------------------------------------------------------------

            1           2           3           4           5           6           7           8           9          10
 ........................................................................................................................
   1    9.997       8.989       7.956       6.901       5.842       4.789       3.707       2.555       1.316      3.6160E-03
   2    9.997       8.948       7.867       6.757       5.661       4.636       3.604       2.495       1.289      3.5425E-03
   3    9.997       8.874       7.693       6.450       5.243       4.313       3.405       2.389       1.244      3.4167E-03
   4    9.997       8.788       7.470       5.978       4.449       3.814       3.152       2.270       1.197      3.2877E-03
   5    9.997       8.743       7.322       5.529       3.204       3.334       2.985       2.211       1.177      3.2330E-03
   6    9.997       8.798       7.488       6.004       4.478       3.842       3.176       2.288       1.206      3.3135E-03
   7    9.997       8.896       7.735       6.507       5.307       4.375       3.459       2.427       1.264      3.4731E-03
   8    9.997       8.986       7.939       6.856       5.774       4.746       3.697       2.562       1.324      3.6390E-03
   9    9.998       9.050       8.074       7.064       6.028       4.969       3.856       2.659       1.370      3.7656E-03
  10    9.998       9.082       8.139       7.160       6.140       5.072       3.934       2.709       1.394      3.8323E-03
1
              HEAD IN LAYER   3 AT END OF TIME STEP   5 IN STRESS PERIOD    5
  ---------------------------------------------------------------------------

            1           2           3           4           5           6           7           8           9          10
 ........................................................................................................................
   1    9.997       8.986       7.951       6.895       5.834       4.782       3.700       2.548       1.312      3.8897E-03
   2    9.997       8.946       7.862       6.751       5.654       4.629       3.597       2.489       1.285      3.8109E-03
   3    9.997       8.871       7.688       6.445       5.239       4.306       3.398       2.383       1.240      3.6760E-03
   4    9.997       8.786       7.466       5.979       4.472       3.815       3.147       2.265       1.193      3.5378E-03
   5    9.997       8.740       7.320       5.550       3.385       3.360       2.983       2.206       1.173      3.4794E-03
   6    9.997       8.795       7.485       6.005       4.502       3.844       3.171       2.282       1.202      3.5656E-03
   7    9.997       8.893       7.730       6.502       5.304       4.369       3.452       2.422       1.260      3.7368E-03
   8    9.997       8.984       7.935       6.850       5.767       4.739       3.690       2.556       1.320      3.9148E-03
   9    9.998       9.047       8.070       7.058       6.021       4.961       3.849       2.653       1.366      4.0506E-03
  10    9.998       9.079       8.135       7.155       6.134       5.064       3.927       2.703       1.390      4.1221E-03
1
              HEAD IN LAYER   4 AT END OF TIME STEP   5 IN STRESS PERIOD    5
  ---------------------------------------------------------------------------

            1           2           3           4           5           6           7           8           9          10
 ........................................................................................................................
   1    9.997       8.985       7.949       6.892       5.831       4.778       3.696       2.545       1.310      3.9135E-03
   2    9.997       8.944       7.860       6.747       5.651       4.625       3.593       2.486       1.283      3.8342E-03
   3    9.997       8.870       7.686       6.442       5.238       4.303       3.395       2.380       1.238      3.6985E-03
   4    9.997       8.784       7.464       5.980       4.484       3.816       3.144       2.262       1.191      3.5595E-03
   5    9.997       8.739       7.319       5.561       3.472       3.373       2.982       2.203       1.171      3.5008E-03
   6    9.997       8.794       7.483       6.005       4.514       3.845       3.168       2.280       1.200      3.5876E-03
   7    9.997       8.891       7.728       6.499       5.302       4.366       3.449       2.419       1.258      3.7598E-03
   8    9.997       8.982       7.933       6.847       5.764       4.736       3.686       2.553       1.318      3.9390E-03
   9    9.998       9.046       8.067       7.055       6.017       4.957       3.845       2.650       1.364      4.0756E-03
  10    9.998       9.078       8.133       7.152       6.130       5.061       3.923       2.700       1.388      4.1476E-03

 HEAD WILL BE SAVED ON UNIT   51 AT END OF TIME STEP    5, STRESS PERIOD    5

 DRAWDOWN WILL BE SAVED ON UNIT   52 AT END OF TIME STEP    5, STRESS PERIOD    5
1
  VOLUMETRIC BUDGET FOR ENTIRE MODEL AT END OF TIME STEP    5, STRESS PERIOD   5
  ------------------------------------------------------------------------------

     CUMULATIVE VOLUMES      L**3       RATES FOR THIS TIME STEP      L**3/T
     ------------------                 ------------------------

           IN:                                      IN:
           ---                                      ---
             STORAGE =      524025.7812               STORAGE =         375.8442
       CONSTANT HEAD =           0.0000         CONSTANT HEAD =           0.0000
               WELLS =           0.0000                 WELLS =           0.0000
     HEAD DEP BOUNDS =       84561.4844       HEAD DEP BOUNDS =         643.3673

            TOTAL IN =      608587.2500              TOTAL IN =        1019.2115

          OUT:                                     OUT:
          ----                                     ----
             STORAGE =        2038.1437               STORAGE =         375.8408
       CONSTANT HEAD =           0.0000         CONSTANT HEAD =           0.0000
               WELLS =      100000.0000                 WELLS =           0.0000
     HEAD DEP BOUNDS =      506551.1562       HEAD DEP BOUNDS =         643.3530

           TOTAL OUT =      608589.3125             TOTAL OUT =        1019.1938

            IN - OUT =          -2.0625              IN - OUT =       1.7700E-02

 PERCENT DISCREPANCY =          -0.00     PERCENT DISCREPANCY =           0.00






         TIME SUMMARY AT END OF TIME STEP    5 IN STRESS PERIOD    5
                    SECONDS     MINUTES      HOURS       DAYS        YEARS
                    -----------------------------------------------------------
   TIME STEP LENGTH  86400.      1440.0      24.000      1.0000     2.73785E-03
 STRESS PERIOD TIME 4.32000E+05  7200.0      120.00      5.0000     1.36893E-02
         TOTAL TIME 2.64384E+07 4.40640E+05  7344.0      306.00     0.83778    
1
 
 SOLVING FOR HEAD 

 OUTPUT CONTROL FOR STRESS PERIOD    5   TIME STEP    6
    SAVE HEAD FOR ALL LAYERS
    SAVE DRAWDOWN FOR ALL LAYERS
    SAVE BUDGET
    PRINT HEAD FOR ALL LAYERS
    PRINT BUDGET
 UBDSV1 SAVING "         STORAGE" ON UNIT  53 AT TIME STEP  6, STRESS PERIOD   5
 UBDSV2 SAVING "   CONSTANT HEAD" ON UNIT  53 AT TIME STEP  6, STRESS PERIOD   5
 UBDSV1 SAVING "FLOW RIGHT FACE " ON UNIT  53 AT TIME STEP  6, STRESS PERIOD   5
 UBDSV1 SAVING "FLOW FRONT FACE " ON UNIT  53 AT TIME STEP  6, STRESS PERIOD   5
 UBDSV1 SAVING "FLOW LOWER FACE " ON UNIT  53 AT TIME STEP  6, STRESS PERIOD   5
1
              HEAD IN LAYER   1 AT END OF TIME STEP   6 IN STRESS PERIOD    5
  ---------------------------------------------------------------------------

            1           2           3           4           5           6           7           8           9          10
 ........................................................................................................................
   1    9.998       8.990       7.958       6.903       5.843       4.791       3.708       2.556       1.317      1.8259E-03
   2    9.997       8.950       7.868       6.759       5.663       4.638       3.605       2.496       1.290      1.7865E-03
   3    9.997       8.876       7.695       6.453       5.245       4.314       3.406       2.390       1.245      1.7195E-03
   4    9.997       8.790       7.473       5.982       4.453       3.816       3.153       2.271       1.198      1.6509E-03
   5    9.997       8.745       7.325       5.534       3.197       3.337       2.987       2.212       1.178      1.6219E-03
   6    9.997       8.800       7.491       6.007       4.482       3.844       3.177       2.289       1.207      1.6646E-03
   7    9.997       8.897       7.737       6.509       5.309       4.377       3.460       2.428       1.265      1.7495E-03
   8    9.998       8.988       7.941       6.858       5.776       4.748       3.698       2.563       1.326      1.8382E-03
   9    9.998       9.051       8.076       7.066       6.029       4.970       3.857       2.661       1.371      1.9061E-03
  10    9.998       9.083       8.141       7.162       6.142       5.073       3.935       2.711       1.396      1.9420E-03
1
              HEAD IN LAYER   2 AT END OF TIME STEP   6 IN STRESS PERIOD    5
  ---------------------------------------------------------------------------

            1           2           3           4           5           6           7           8           9          10
 ........................................................................................................................
   1    9.997       8.986       7.951       6.894       5.834       4.781       3.700       2.549       1.313      3.6071E-03
   2    9.997       8.946       7.862       6.750       5.654       4.629       3.596       2.489       1.286      3.5336E-03
   3    9.997       8.872       7.689       6.446       5.242       4.307       3.398       2.383       1.240      3.4078E-03
   4    9.997       8.786       7.468       5.984       4.482       3.819       3.147       2.265       1.194      3.2790E-03
   5    9.997       8.742       7.324       5.562       3.392       3.367       2.985       2.206       1.174      3.2246E-03
   6    9.997       8.796       7.486       6.010       4.511       3.847       3.172       2.283       1.203      3.3050E-03
   7    9.997       8.893       7.730       6.503       5.306       4.370       3.452       2.422       1.261      3.4646E-03
   8    9.997       8.984       7.935       6.850       5.767       4.739       3.690       2.556       1.321      3.6306E-03
   9    9.998       9.047       8.069       7.058       6.020       4.961       3.849       2.654       1.367      3.7573E-03
  10    9.998       9.079       8.135       7.154       6.133       5.064       3.927       2.704       1.391      3.8240E-03
1
              HEAD IN LAYER   3 AT END OF TIME STEP   6 IN STRESS PERIOD    5
  ---------------------------------------------------------------------------

            1           2           3           4           5           6           7           8           9          10
 ........................................................................................................................
   1    9.997       8.984       7.946       6.888       5.826       4.773       3.692       2.543       1.308      3.8802E-03
   2    9.997       8.943       7.857       6.744       5.647       4.621       3.589       2.483       1.282      3.8015E-03
   3    9.997       8.869       7.684       6.441       5.239       4.301       3.391       2.377       1.236      3.6666E-03
   4    9.997       8.784       7.464       5.986       4.507       3.821       3.142       2.260       1.190      3.5286E-03
   5    9.997       8.739       7.323       5.585       3.551       3.395       2.984       2.201       1.170      3.4705E-03
   6    9.997       8.793       7.483       6.012       4.536       3.850       3.167       2.277       1.199      3.5566E-03
   7    9.997       8.891       7.726       6.498       5.304       4.365       3.445       2.416       1.257      3.7277E-03
   8    9.997       8.981       7.930       6.844       5.761       4.732       3.683       2.550       1.317      3.9058E-03
   9    9.998       9.045       8.065       7.052       6.013       4.953       3.842       2.648       1.363      4.0417E-03
  10    9.998       9.077       8.130       7.148       6.126       5.056       3.920       2.698       1.387      4.1133E-03
1
              HEAD IN LAYER   4 AT END OF TIME STEP   6 IN STRESS PERIOD    5
  ---------------------------------------------------------------------------

            1           2           3           4           5           6           7           8           9          10
 ........................................................................................................................
   1    9.997       8.982       7.944       6.885       5.823       4.769       3.689       2.539       1.306      3.9040E-03
   2    9.997       8.942       7.855       6.741       5.644       4.617       3.586       2.480       1.280      3.8248E-03
   3    9.997       8.867       7.682       6.439       5.238       4.299       3.388       2.374       1.234      3.6891E-03
   4    9.997       8.782       7.463       5.988       4.519       3.823       3.140       2.257       1.188      3.5503E-03
   5    9.997       8.738       7.322       5.597       3.628       3.408       2.983       2.199       1.168      3.4919E-03
   6    9.997       8.792       7.481       6.014       4.549       3.852       3.165       2.275       1.197      3.5786E-03
   7    9.997       8.889       7.724       6.496       5.303       4.362       3.442       2.413       1.255      3.7507E-03
   8    9.997       8.980       7.928       6.841       5.758       4.728       3.679       2.547       1.315      3.9300E-03
   9    9.998       9.044       8.063       7.049       6.010       4.950       3.838       2.645       1.361      4.0667E-03
  10    9.998       9.076       8.128       7.145       6.123       5.053       3.916       2.695       1.385      4.1388E-03

 HEAD WILL BE SAVED ON UNIT   51 AT END OF TIME STEP    6, STRESS PERIOD    5

 DRAWDOWN WILL BE SAVED ON UNIT   52 AT END OF TIME STEP    6, STRESS PERIOD    5
1
  VOLUMETRIC BUDGET FOR ENTIRE MODEL AT END OF TIME STEP    6, STRESS PERIOD   5
  ------------------------------------------------------------------------------

     CUMULATIVE VOLUMES      L**3       RATES FOR THIS TIME STEP      L**3/T
     ------------------                 ------------------------

           IN:                                      IN:
           ---                                      ---
             STORAGE =      524388.0000               STORAGE =         362.2353
       CONSTANT HEAD =           0.0000         CONSTANT HEAD =           0.0000
               WELLS =           0.0000                 WELLS =           0.0000
     HEAD DEP BOUNDS =       85206.2109       HEAD DEP BOUNDS =         644.7241

            TOTAL IN =      609594.1875              TOTAL IN =        1006.9594

          OUT:                                     OUT:
          ----                                     ----
             STORAGE =        2403.2983               STORAGE =         365.1546
       CONSTANT HEAD =           0.0000         CONSTANT HEAD =           0.0000
               WELLS =      100000.0000                 WELLS =           0.0000
     HEAD DEP BOUNDS =      507192.9375       HEAD DEP BOUNDS =         641.7823

           TOTAL OUT =      609596.2500             TOTAL OUT =        1006.9369

            IN - OUT =          -2.0625              IN - OUT =       2.2461E-02

 PERCENT DISCREPANCY =          -0.00     PERCENT DISCREPANCY =           0.00






         TIME SUMMARY AT END OF TIME STEP    6 IN STRESS PERIOD    5
                    SECONDS     MINUTES      HOURS       DAYS        YEARS
                    -----------------------------------------------------------
   TIME STEP LENGTH  86400.      1440.0      24.000      1.0000     2.73785E-03
 STRESS PERIOD TIME 5.18400E+05  8640.0      144.00      6.0000     1.64271E-02
         TOTAL TIME 2.65248E+07 4.42080E+05  7368.0      307.00     0.84052    
1
 
 SOLVING FOR HEAD 

 OUTPUT CONTROL FOR STRESS PERIOD    5   TIME STEP    7
    SAVE HEAD FOR ALL LAYERS
    SAVE DRAWDOWN FOR ALL LAYERS
    SAVE BUDGET
    PRINT HEAD FOR ALL LAYERS
    PRINT BUDGET
 UBDSV1 SAVING "         STORAGE" ON UNIT  53 AT TIME STEP  7, STRESS PERIOD   5
 UBDSV2 SAVING "   CONSTANT HEAD" ON UNIT  53 AT TIME STEP  7, STRESS PERIOD   5
 UBDSV1 SAVING "FLOW RIGHT FACE " ON UNIT  53 AT TIME STEP  7, STRESS PERIOD   5
 UBDSV1 SAVING "FLOW FRONT FACE " ON UNIT  53 AT TIME STEP  7, STRESS PERIOD   5
 UBDSV1 SAVING "FLOW LOWER FACE " ON UNIT  53 AT TIME STEP  7, STRESS PERIOD   5
1
              HEAD IN LAYER   1 AT END OF TIME STEP   7 IN STRESS PERIOD    5
  ---------------------------------------------------------------------------

            1           2           3           4           5           6           7           8           9          10
 ........................................................................................................................
   1    9.998       8.988       7.953       6.896       5.835       4.782       3.701       2.550       1.314      1.8212E-03
   2    9.997       8.947       7.864       6.752       5.656       4.630       3.598       2.490       1.287      1.7818E-03
   3    9.997       8.873       7.691       6.448       5.244       4.308       3.399       2.384       1.242      1.7148E-03
   4    9.997       8.788       7.470       5.988       4.485       3.820       3.148       2.266       1.195      1.6463E-03
   5    9.997       8.744       7.327       5.566       3.385       3.369       2.986       2.207       1.175      1.6175E-03
   6    9.997       8.798       7.489       6.013       4.514       3.849       3.173       2.284       1.204      1.6600E-03
   7    9.997       8.895       7.733       6.505       5.308       4.372       3.453       2.423       1.262      1.7449E-03
   8    9.998       8.985       7.936       6.852       5.769       4.740       3.691       2.558       1.322      1.8338E-03
   9    9.998       9.049       8.071       7.060       6.022       4.962       3.850       2.655       1.368      1.9017E-03
  10    9.998       9.081       8.136       7.155       6.134       5.065       3.928       2.705       1.393      1.9375E-03
1
              HEAD IN LAYER   2 AT END OF TIME STEP   7 IN STRESS PERIOD    5
  ---------------------------------------------------------------------------

            1           2           3           4           5           6           7           8           9          10
 ........................................................................................................................
   1    9.997       8.984       7.946       6.887       5.826       4.773       3.692       2.543       1.309      3.5983E-03
   2    9.997       8.943       7.857       6.744       5.647       4.621       3.589       2.484       1.283      3.5249E-03
   3    9.997       8.869       7.685       6.443       5.241       4.302       3.392       2.377       1.237      3.3991E-03
   4    9.997       8.784       7.466       5.992       4.515       3.825       3.143       2.260       1.191      3.2705E-03
   5    9.997       8.740       7.326       5.596       3.559       3.401       2.985       2.202       1.171      3.2164E-03
   6    9.997       8.794       7.485       6.017       4.545       3.853       3.168       2.278       1.200      3.2966E-03
   7    9.997       8.891       7.727       6.500       5.306       4.365       3.446       2.416       1.258      3.4561E-03
   8    9.997       8.981       7.930       6.844       5.761       4.732       3.683       2.551       1.318      3.6223E-03
   9    9.998       9.045       8.065       7.052       6.013       4.953       3.842       2.648       1.364      3.7491E-03
  10    9.998       9.077       8.130       7.148       6.125       5.056       3.920       2.698       1.388      3.8158E-03
1
              HEAD IN LAYER   3 AT END OF TIME STEP   7 IN STRESS PERIOD    5
  ---------------------------------------------------------------------------

            1           2           3           4           5           6           7           8           9          10
 ........................................................................................................................
   1    9.997       8.981       7.941       6.881       5.819       4.765       3.685       2.537       1.305      3.8709E-03
   2    9.997       8.940       7.852       6.738       5.641       4.614       3.582       2.478       1.279      3.7921E-03
   3    9.997       8.866       7.680       6.438       5.240       4.297       3.385       2.372       1.233      3.6573E-03
   4    9.997       8.782       7.463       5.995       4.541       3.829       3.139       2.255       1.187      3.5196E-03
   5    9.997       8.738       7.326       5.620       3.699       3.429       2.985       2.197       1.167      3.4618E-03
   6    9.997       8.792       7.482       6.021       4.571       3.858       3.163       2.272       1.196      3.5478E-03
   7    9.997       8.888       7.722       6.495       5.305       4.360       3.439       2.411       1.254      3.7188E-03
   8    9.997       8.979       7.926       6.839       5.755       4.725       3.676       2.545       1.314      3.8969E-03
   9    9.998       9.043       8.060       7.046       6.006       4.946       3.835       2.642       1.360      4.0329E-03
  10    9.998       9.074       8.126       7.142       6.119       5.049       3.913       2.692       1.384      4.1046E-03
1
              HEAD IN LAYER   4 AT END OF TIME STEP   7 IN STRESS PERIOD    5
  ---------------------------------------------------------------------------

            1           2           3           4           5           6           7           8           9          10
 ........................................................................................................................
   1    9.997       8.980       7.939       6.878       5.815       4.761       3.681       2.534       1.303      3.8946E-03
   2    9.997       8.939       7.850       6.735       5.637       4.610       3.578       2.474       1.277      3.8154E-03
   3    9.997       8.865       7.678       6.436       5.239       4.294       3.382       2.369       1.231      3.6798E-03
   4    9.997       8.780       7.462       5.997       4.554       3.831       3.137       2.252       1.185      3.5413E-03
   5    9.997       8.737       7.326       5.632       3.766       3.444       2.985       2.195       1.165      3.4833E-03
   6    9.997       8.790       7.481       6.023       4.584       3.860       3.161       2.270       1.194      3.5697E-03
   7    9.997       8.887       7.720       6.493       5.304       4.358       3.436       2.408       1.252      3.7417E-03
   8    9.997       8.978       7.924       6.836       5.752       4.721       3.673       2.542       1.312      3.9210E-03
   9    9.998       9.041       8.058       7.043       6.003       4.942       3.831       2.639       1.358      4.0579E-03
  10    9.998       9.073       8.123       7.139       6.115       5.045       3.909       2.689       1.382      4.1300E-03

 HEAD WILL BE SAVED ON UNIT   51 AT END OF TIME STEP    7, STRESS PERIOD    5

 DRAWDOWN WILL BE SAVED ON UNIT   52 AT END OF TIME STEP    7, STRESS PERIOD    5
1
  VOLUMETRIC BUDGET FOR ENTIRE MODEL AT END OF TIME STEP    7, STRESS PERIOD   5
  ------------------------------------------------------------------------------

     CUMULATIVE VOLUMES      L**3       RATES FOR THIS TIME STEP      L**3/T
     ------------------                 ------------------------

           IN:                                      IN:
           ---                                      ---
             STORAGE =      524736.5625               STORAGE =         348.5393
       CONSTANT HEAD =           0.0000         CONSTANT HEAD =           0.0000
               WELLS =           0.0000                 WELLS =           0.0000
     HEAD DEP BOUNDS =       85852.2188       HEAD DEP BOUNDS =         646.0058

            TOTAL IN =      610588.7500              TOTAL IN =         994.5450

          OUT:                                     OUT:
          ----                                     ----
             STORAGE =        2757.6040               STORAGE =         354.3058
       CONSTANT HEAD =           0.0000         CONSTANT HEAD =           0.0000
               WELLS =      100000.0000                 WELLS =           0.0000
     HEAD DEP BOUNDS =      507833.1562       HEAD DEP BOUNDS =         640.2314

           TOTAL OUT =      610590.7500             TOTAL OUT =         994.5372

            IN - OUT =          -2.0000              IN - OUT =       7.8125E-03

 PERCENT DISCREPANCY =          -0.00     PERCENT DISCREPANCY =           0.00






         TIME SUMMARY AT END OF TIME STEP    7 IN STRESS PERIOD    5
                    SECONDS     MINUTES      HOURS       DAYS        YEARS
                    -----------------------------------------------------------
   TIME STEP LENGTH  86400.      1440.0      24.000      1.0000     2.73785E-03
 STRESS PERIOD TIME 6.04800E+05  10080.      168.00      7.0000     1.91650E-02
         TOTAL TIME 2.66112E+07 4.43520E+05  7392.0      308.00     0.84326    
1
 
 SOLVING FOR HEAD 

 OUTPUT CONTROL FOR STRESS PERIOD    5   TIME STEP    8
    SAVE HEAD FOR ALL LAYERS
    SAVE DRAWDOWN FOR ALL LAYERS
    SAVE BUDGET
    PRINT HEAD FOR ALL LAYERS
    PRINT BUDGET
 UBDSV1 SAVING "         STORAGE" ON UNIT  53 AT TIME STEP  8, STRESS PERIOD   5
 UBDSV2 SAVING "   CONSTANT HEAD" ON UNIT  53 AT TIME STEP  8, STRESS PERIOD   5
 UBDSV1 SAVING "FLOW RIGHT FACE " ON UNIT  53 AT TIME STEP  8, STRESS PERIOD   5
 UBDSV1 SAVING "FLOW FRONT FACE " ON UNIT  53 AT TIME STEP  8, STRESS PERIOD   5
 UBDSV1 SAVING "FLOW LOWER FACE " ON UNIT  53 AT TIME STEP  8, STRESS PERIOD   5
1
              HEAD IN LAYER   1 AT END OF TIME STEP   8 IN STRESS PERIOD    5
  ---------------------------------------------------------------------------

            1           2           3           4           5           6           7           8           9          10
 ........................................................................................................................
   1    9.998       8.985       7.948       6.889       5.827       4.774       3.693       2.544       1.311      1.8165E-03
   2    9.997       8.945       7.859       6.746       5.649       4.622       3.590       2.485       1.284      1.7771E-03
   3    9.997       8.871       7.687       6.445       5.244       4.303       3.393       2.378       1.238      1.7102E-03
   4    9.997       8.786       7.469       5.995       4.518       3.826       3.144       2.261       1.192      1.6419E-03
   5    9.997       8.742       7.330       5.600       3.552       3.403       2.986       2.203       1.172      1.6131E-03
   6    9.997       8.796       7.488       6.021       4.547       3.855       3.169       2.279       1.201      1.6557E-03
   7    9.997       8.893       7.729       6.502       5.308       4.367       3.447       2.418       1.259      1.7405E-03
   8    9.998       8.983       7.932       6.846       5.762       4.733       3.684       2.552       1.319      1.8293E-03
   9    9.998       9.046       8.066       7.053       6.014       4.954       3.843       2.650       1.365      1.8972E-03
  10    9.998       9.078       8.131       7.149       6.127       5.057       3.921       2.700       1.390      1.9332E-03
1
              HEAD IN LAYER   2 AT END OF TIME STEP   8 IN STRESS PERIOD    5
  ---------------------------------------------------------------------------

            1           2           3           4           5           6           7           8           9          10
 ........................................................................................................................
   1    9.997       8.981       7.941       6.881       5.818       4.765       3.685       2.537       1.306      3.5896E-03
   2    9.997       8.941       7.852       6.738       5.641       4.613       3.582       2.478       1.280      3.5161E-03
   3    9.997       8.867       7.681       6.440       5.242       4.298       3.385       2.372       1.234      3.3905E-03
   4    9.997       8.783       7.465       6.000       4.549       3.832       3.139       2.255       1.188      3.2622E-03
   5    9.997       8.739       7.330       5.630       3.706       3.436       2.986       2.198       1.168      3.2084E-03
   6    9.997       8.793       7.484       6.026       4.579       3.861       3.164       2.273       1.197      3.2884E-03
   7    9.997       8.889       7.723       6.497       5.307       4.361       3.439       2.411       1.255      3.4478E-03
   8    9.997       8.979       7.926       6.839       5.755       4.725       3.676       2.545       1.315      3.6140E-03
   9    9.998       9.043       8.060       7.045       6.005       4.945       3.835       2.643       1.361      3.7409E-03
  10    9.998       9.074       8.125       7.141       6.118       5.048       3.913       2.693       1.385      3.8077E-03
1
              HEAD IN LAYER   3 AT END OF TIME STEP   8 IN STRESS PERIOD    5
  ---------------------------------------------------------------------------

            1           2           3           4           5           6           7           8           9          10
 ........................................................................................................................
   1    9.997       8.978       7.936       6.875       5.811       4.757       3.677       2.531       1.302      3.8616E-03
   2    9.997       8.938       7.848       6.732       5.634       4.606       3.575       2.472       1.276      3.7828E-03
   3    9.997       8.864       7.677       6.436       5.241       4.293       3.379       2.366       1.230      3.6482E-03
   4    9.997       8.780       7.463       6.005       4.576       3.837       3.136       2.250       1.184      3.5108E-03
   5    9.997       8.737       7.331       5.655       3.830       3.464       2.987       2.193       1.164      3.4534E-03
   6    9.997       8.790       7.482       6.031       4.605       3.866       3.160       2.268       1.193      3.5391E-03
   7    9.997       8.886       7.719       6.493       5.306       4.357       3.433       2.406       1.251      3.7099E-03
   8    9.997       8.976       7.921       6.833       5.749       4.718       3.669       2.540       1.311      3.8881E-03
   9    9.998       9.040       8.056       7.039       5.999       4.938       3.828       2.637       1.357      4.0242E-03
  10    9.998       9.072       8.121       7.135       6.111       5.041       3.906       2.687       1.381      4.0959E-03
1
              HEAD IN LAYER   4 AT END OF TIME STEP   8 IN STRESS PERIOD    5
  ---------------------------------------------------------------------------

            1           2           3           4           5           6           7           8           9          10
 ........................................................................................................................
   1    9.997       8.977       7.934       6.871       5.807       4.753       3.674       2.528       1.300      3.8853E-03
   2    9.997       8.937       7.845       6.729       5.631       4.603       3.571       2.469       1.274      3.8060E-03
   3    9.997       8.863       7.675       6.434       5.240       4.291       3.376       2.363       1.228      3.6706E-03
   4    9.997       8.779       7.461       6.008       4.589       3.840       3.134       2.247       1.182      3.5325E-03
   5    9.997       8.736       7.331       5.668       3.890       3.479       2.987       2.191       1.163      3.4749E-03
   6    9.997       8.789       7.481       6.034       4.619       3.869       3.159       2.265       1.191      3.5610E-03
   7    9.997       8.885       7.717       6.492       5.306       4.355       3.430       2.403       1.249      3.7329E-03
   8    9.997       8.975       7.919       6.830       5.746       4.714       3.666       2.537       1.309      3.9122E-03
   9    9.998       9.039       8.054       7.037       5.995       4.935       3.824       2.634       1.355      4.0491E-03
  10    9.998       9.071       8.119       7.133       6.108       5.038       3.902       2.684       1.379      4.1213E-03

 HEAD WILL BE SAVED ON UNIT   51 AT END OF TIME STEP    8, STRESS PERIOD    5

 DRAWDOWN WILL BE SAVED ON UNIT   52 AT END OF TIME STEP    8, STRESS PERIOD    5
1
  VOLUMETRIC BUDGET FOR ENTIRE MODEL AT END OF TIME STEP    8, STRESS PERIOD   5
  ------------------------------------------------------------------------------

     CUMULATIVE VOLUMES      L**3       RATES FOR THIS TIME STEP      L**3/T
     ------------------                 ------------------------

           IN:                                      IN:
           ---                                      ---
             STORAGE =      525071.6250               STORAGE =         335.0338
       CONSTANT HEAD =           0.0000         CONSTANT HEAD =           0.0000
               WELLS =           0.0000                 WELLS =           0.0000
     HEAD DEP BOUNDS =       86499.4844       HEAD DEP BOUNDS =         647.2682

            TOTAL IN =      611571.1250              TOTAL IN =         982.3020

          OUT:                                     OUT:
          ----                                     ----
             STORAGE =        3101.1802               STORAGE =         343.5761
       CONSTANT HEAD =           0.0000         CONSTANT HEAD =           0.0000
               WELLS =      100000.0000                 WELLS =           0.0000
     HEAD DEP BOUNDS =      508471.8438       HEAD DEP BOUNDS =         638.6996

           TOTAL OUT =      611573.0000             TOTAL OUT =         982.2756

            IN - OUT =          -1.8750              IN - OUT =       2.6367E-02

 PERCENT DISCREPANCY =          -0.00     PERCENT DISCREPANCY =           0.00






         TIME SUMMARY AT END OF TIME STEP    8 IN STRESS PERIOD    5
                    SECONDS     MINUTES      HOURS       DAYS        YEARS
                    -----------------------------------------------------------
   TIME STEP LENGTH  86400.      1440.0      24.000      1.0000     2.73785E-03
 STRESS PERIOD TIME 6.91200E+05  11520.      192.00      8.0000     2.19028E-02
         TOTAL TIME 2.66976E+07 4.44960E+05  7416.0      309.00     0.84600    
1
 
 SOLVING FOR HEAD 

 OUTPUT CONTROL FOR STRESS PERIOD    5   TIME STEP    9
    SAVE HEAD FOR ALL LAYERS
    SAVE DRAWDOWN FOR ALL LAYERS
    SAVE BUDGET
    PRINT HEAD FOR ALL LAYERS
    PRINT BUDGET
 UBDSV1 SAVING "         STORAGE" ON UNIT  53 AT TIME STEP  9, STRESS PERIOD   5
 UBDSV2 SAVING "   CONSTANT HEAD" ON UNIT  53 AT TIME STEP  9, STRESS PERIOD   5
 UBDSV1 SAVING "FLOW RIGHT FACE " ON UNIT  53 AT TIME STEP  9, STRESS PERIOD   5
 UBDSV1 SAVING "FLOW FRONT FACE " ON UNIT  53 AT TIME STEP  9, STRESS PERIOD   5
 UBDSV1 SAVING "FLOW LOWER FACE " ON UNIT  53 AT TIME STEP  9, STRESS PERIOD   5
1
              HEAD IN LAYER   1 AT END OF TIME STEP   9 IN STRESS PERIOD    5
  ---------------------------------------------------------------------------

            1           2           3           4           5           6           7           8           9          10
 ........................................................................................................................
   1    9.998       8.983       7.943       6.882       5.820       4.766       3.686       2.538       1.308      1.8118E-03
   2    9.997       8.942       7.854       6.740       5.642       4.615       3.583       2.479       1.281      1.7724E-03
   3    9.997       8.869       7.683       6.442       5.244       4.299       3.386       2.373       1.235      1.7055E-03
   4    9.997       8.785       7.468       6.003       4.551       3.834       3.140       2.256       1.189      1.6375E-03
   5    9.997       8.741       7.333       5.633       3.700       3.437       2.987       2.198       1.169      1.6088E-03
   6    9.997       8.795       7.487       6.029       4.581       3.863       3.165       2.274       1.198      1.6513E-03
   7    9.997       8.890       7.725       6.499       5.309       4.363       3.441       2.412       1.256      1.7361E-03
   8    9.998       8.980       7.927       6.840       5.756       4.726       3.677       2.547       1.316      1.8248E-03
   9    9.998       9.044       8.062       7.047       6.007       4.947       3.836       2.644       1.363      1.8928E-03
  10    9.998       9.076       8.127       7.143       6.120       5.050       3.914       2.694       1.387      1.9287E-03
1
              HEAD IN LAYER   2 AT END OF TIME STEP   9 IN STRESS PERIOD    5
  ---------------------------------------------------------------------------

            1           2           3           4           5           6           7           8           9          10
 ........................................................................................................................
   1    9.997       8.979       7.936       6.874       5.810       4.757       3.677       2.532       1.303      3.5809E-03
   2    9.997       8.938       7.848       6.732       5.634       4.606       3.575       2.472       1.277      3.5075E-03
   3    9.997       8.865       7.678       6.437       5.243       4.294       3.379       2.366       1.231      3.3820E-03
   4    9.997       8.781       7.465       6.010       4.583       3.841       3.136       2.250       1.185      3.2540E-03
   5    9.997       8.738       7.334       5.665       3.838       3.470       2.988       2.194       1.165      3.2005E-03
   6    9.997       8.791       7.484       6.036       4.613       3.870       3.161       2.268       1.194      3.2804E-03
   7    9.997       8.887       7.720       6.495       5.308       4.358       3.434       2.406       1.252      3.4396E-03
   8    9.997       8.977       7.921       6.833       5.749       4.718       3.669       2.540       1.312      3.6058E-03
   9    9.998       9.040       8.055       7.039       5.998       4.938       3.828       2.638       1.358      3.7327E-03
  10    9.998       9.072       8.121       7.135       6.111       5.041       3.906       2.688       1.382      3.7996E-03
1
              HEAD IN LAYER   3 AT END OF TIME STEP   9 IN STRESS PERIOD    5
  ---------------------------------------------------------------------------

            1           2           3           4           5           6           7           8           9          10
 ........................................................................................................................
   1    9.997       8.976       7.932       6.868       5.803       4.749       3.670       2.525       1.299      3.8523E-03
   2    9.997       8.935       7.843       6.726       5.628       4.599       3.568       2.466       1.272      3.7736E-03
   3    9.997       8.862       7.674       6.434       5.243       4.290       3.373       2.361       1.227      3.6391E-03
   4    9.997       8.779       7.463       6.016       4.609       3.847       3.133       2.245       1.181      3.5021E-03
   5    9.997       8.736       7.336       5.690       3.948       3.499       2.989       2.189       1.162      3.4452E-03
   6    9.997       8.789       7.482       6.042       4.639       3.876       3.158       2.263       1.190      3.5306E-03
   7    9.997       8.884       7.716       6.492       5.308       4.354       3.428       2.400       1.248      3.7012E-03
   8    9.997       8.974       7.917       6.828       5.743       4.711       3.663       2.534       1.308      3.8794E-03
   9    9.998       9.038       8.051       7.033       5.992       4.931       3.821       2.632       1.354      4.0155E-03
  10    9.998       9.070       8.116       7.129       6.104       5.034       3.899       2.682       1.378      4.0873E-03
1
              HEAD IN LAYER   4 AT END OF TIME STEP   9 IN STRESS PERIOD    5
  ---------------------------------------------------------------------------

            1           2           3           4           5           6           7           8           9          10
 ........................................................................................................................
   1    9.997       8.975       7.929       6.865       5.800       4.745       3.666       2.522       1.297      3.8760E-03
   2    9.997       8.934       7.841       6.724       5.625       4.596       3.564       2.463       1.270      3.7968E-03
   3    9.997       8.861       7.672       6.432       5.243       4.288       3.370       2.358       1.225      3.6615E-03
   4    9.997       8.777       7.462       6.019       4.623       3.850       3.131       2.243       1.179      3.5238E-03
   5    9.997       8.735       7.336       5.702       4.002       3.513       2.990       2.187       1.160      3.4667E-03
   6    9.997       8.787       7.481       6.045       4.653       3.879       3.156       2.261       1.189      3.5525E-03
   7    9.997       8.883       7.714       6.490       5.308       4.352       3.425       2.398       1.246      3.7241E-03
   8    9.997       8.973       7.915       6.825       5.740       4.708       3.659       2.531       1.306      3.9034E-03
   9    9.998       9.036       8.049       7.030       5.988       4.927       3.818       2.629       1.352      4.0404E-03
  10    9.998       9.068       8.114       7.126       6.101       5.030       3.896       2.679       1.376      4.1126E-03

 HEAD WILL BE SAVED ON UNIT   51 AT END OF TIME STEP    9, STRESS PERIOD    5

 DRAWDOWN WILL BE SAVED ON UNIT   52 AT END OF TIME STEP    9, STRESS PERIOD    5
1
  VOLUMETRIC BUDGET FOR ENTIRE MODEL AT END OF TIME STEP    9, STRESS PERIOD   5
  ------------------------------------------------------------------------------

     CUMULATIVE VOLUMES      L**3       RATES FOR THIS TIME STEP      L**3/T
     ------------------                 ------------------------

           IN:                                      IN:
           ---                                      ---
             STORAGE =      525394.8125               STORAGE =         323.1788
       CONSTANT HEAD =           0.0000         CONSTANT HEAD =           0.0000
               WELLS =           0.0000                 WELLS =           0.0000
     HEAD DEP BOUNDS =       87147.9297       HEAD DEP BOUNDS =         648.4475

            TOTAL IN =      612542.7500              TOTAL IN =         971.6263

          OUT:                                     OUT:
          ----                                     ----
             STORAGE =        3435.6106               STORAGE =         334.4304
       CONSTANT HEAD =           0.0000         CONSTANT HEAD =           0.0000
               WELLS =      100000.0000                 WELLS =           0.0000
     HEAD DEP BOUNDS =      509109.0312       HEAD DEP BOUNDS =         637.1845

           TOTAL OUT =      612544.6250             TOTAL OUT =         971.6149

            IN - OUT =          -1.8750              IN - OUT =       1.1414E-02

 PERCENT DISCREPANCY =          -0.00     PERCENT DISCREPANCY =           0.00






         TIME SUMMARY AT END OF TIME STEP    9 IN STRESS PERIOD    5
                    SECONDS     MINUTES      HOURS       DAYS        YEARS
                    -----------------------------------------------------------
   TIME STEP LENGTH  86400.      1440.0      24.000      1.0000     2.73785E-03
 STRESS PERIOD TIME 7.77600E+05  12960.      216.00      9.0000     2.46407E-02
         TOTAL TIME 2.67840E+07 4.46400E+05  7440.0      310.00     0.84873    
1
 
 SOLVING FOR HEAD 

 OUTPUT CONTROL FOR STRESS PERIOD    5   TIME STEP   10
    SAVE HEAD FOR ALL LAYERS
    SAVE DRAWDOWN FOR ALL LAYERS
    SAVE BUDGET
    PRINT HEAD FOR ALL LAYERS
    PRINT BUDGET
 UBDSV1 SAVING "         STORAGE" ON UNIT  53 AT TIME STEP 10, STRESS PERIOD   5
 UBDSV2 SAVING "   CONSTANT HEAD" ON UNIT  53 AT TIME STEP 10, STRESS PERIOD   5
 UBDSV1 SAVING "FLOW RIGHT FACE " ON UNIT  53 AT TIME STEP 10, STRESS PERIOD   5
 UBDSV1 SAVING "FLOW FRONT FACE " ON UNIT  53 AT TIME STEP 10, STRESS PERIOD   5
 UBDSV1 SAVING "FLOW LOWER FACE " ON UNIT  53 AT TIME STEP 10, STRESS PERIOD   5
1
              HEAD IN LAYER   1 AT END OF TIME STEP  10 IN STRESS PERIOD    5
  ---------------------------------------------------------------------------

            1           2           3           4           5           6           7           8           9          10
 ........................................................................................................................
   1    9.998       8.980       7.938       6.876       5.812       4.758       3.678       2.533       1.304      1.8071E-03
   2    9.997       8.940       7.849       6.734       5.636       4.607       3.576       2.473       1.278      1.7679E-03
   3    9.997       8.866       7.680       6.440       5.245       4.295       3.380       2.367       1.232      1.7010E-03
   4    9.997       8.783       7.467       6.013       4.585       3.842       3.137       2.251       1.186      1.6331E-03
   5    9.997       8.741       7.337       5.667       3.832       3.471       2.989       2.194       1.166      1.6048E-03
   6    9.997       8.793       7.486       6.039       4.614       3.871       3.162       2.269       1.195      1.6471E-03
   7    9.997       8.888       7.722       6.497       5.310       4.359       3.435       2.407       1.253      1.7316E-03
   8    9.998       8.978       7.923       6.835       5.751       4.719       3.670       2.541       1.313      1.8204E-03
   9    9.998       9.041       8.057       7.041       6.000       4.939       3.829       2.639       1.360      1.8885E-03
  10    9.998       9.073       8.122       7.136       6.112       5.042       3.907       2.689       1.384      1.9245E-03
1
              HEAD IN LAYER   2 AT END OF TIME STEP  10 IN STRESS PERIOD    5
  ---------------------------------------------------------------------------

            1           2           3           4           5           6           7           8           9          10
 ........................................................................................................................
   1    9.997       8.976       7.931       6.868       5.803       4.749       3.670       2.526       1.300      3.5723E-03
   2    9.997       8.936       7.843       6.727       5.628       4.599       3.568       2.467       1.273      3.4989E-03
   3    9.997       8.862       7.674       6.436       5.245       4.291       3.373       2.361       1.228      3.3736E-03
   4    9.997       8.780       7.465       6.021       4.617       3.850       3.134       2.246       1.182      3.2460E-03
   5    9.997       8.738       7.339       5.699       3.956       3.504       2.991       2.190       1.162      3.1929E-03
   6    9.997       8.790       7.484       6.047       4.646       3.880       3.159       2.264       1.191      3.2725E-03
   7    9.997       8.885       7.717       6.493       5.311       4.355       3.428       2.401       1.249      3.4315E-03
   8    9.997       8.974       7.917       6.828       5.743       4.711       3.663       2.535       1.309      3.5976E-03
   9    9.998       9.038       8.051       7.033       5.991       4.931       3.821       2.632       1.355      3.7246E-03
  10    9.998       9.070       8.116       7.129       6.103       5.033       3.899       2.682       1.379      3.7916E-03
1
              HEAD IN LAYER   3 AT END OF TIME STEP  10 IN STRESS PERIOD    5
  ---------------------------------------------------------------------------

            1           2           3           4           5           6           7           8           9          10
 ........................................................................................................................
   1    9.997       8.973       7.927       6.862       5.796       4.741       3.663       2.520       1.296      3.8431E-03
   2    9.997       8.933       7.839       6.721       5.623       4.592       3.561       2.461       1.269      3.7645E-03
   3    9.997       8.860       7.671       6.433       5.245       4.287       3.367       2.356       1.224      3.6302E-03
   4    9.997       8.777       7.463       6.027       4.643       3.857       3.131       2.241       1.178      3.4936E-03
   5    9.997       8.736       7.341       5.723       4.054       3.532       2.992       2.186       1.159      3.4372E-03
   6    9.997       8.787       7.483       6.054       4.673       3.887       3.156       2.259       1.188      3.5223E-03
   7    9.997       8.882       7.713       6.491       5.311       4.351       3.422       2.395       1.245      3.6926E-03
   8    9.997       8.972       7.913       6.823       5.738       4.705       3.656       2.529       1.305      3.8707E-03
   9    9.998       9.035       8.047       7.027       5.985       4.924       3.814       2.627       1.351      4.0069E-03
  10    9.998       9.067       8.112       7.123       6.097       5.026       3.892       2.677       1.375      4.0787E-03
1
              HEAD IN LAYER   4 AT END OF TIME STEP  10 IN STRESS PERIOD    5
  ---------------------------------------------------------------------------

            1           2           3           4           5           6           7           8           9          10
 ........................................................................................................................
   1    9.997       8.972       7.924       6.859       5.792       4.738       3.659       2.517       1.294      3.8668E-03
   2    9.997       8.932       7.837       6.718       5.620       4.589       3.557       2.458       1.267      3.7877E-03
   3    9.997       8.859       7.669       6.431       5.245       4.285       3.365       2.353       1.222      3.6526E-03
   4    9.997       8.776       7.463       6.031       4.656       3.861       3.130       2.238       1.176      3.5154E-03
   5    9.997       8.735       7.342       5.736       4.102       3.546       2.993       2.184       1.157      3.4588E-03
   6    9.997       8.786       7.482       6.057       4.686       3.890       3.155       2.257       1.186      3.5442E-03
   7    9.997       8.881       7.711       6.489       5.311       4.350       3.420       2.393       1.243      3.7155E-03
   8    9.997       8.971       7.911       6.820       5.735       4.702       3.653       2.526       1.303      3.8947E-03
   9    9.998       9.034       8.045       7.024       5.981       4.920       3.811       2.624       1.349      4.0318E-03
  10    9.998       9.066       8.110       7.120       6.093       5.023       3.889       2.674       1.373      4.1041E-03

 HEAD WILL BE SAVED ON UNIT   51 AT END OF TIME STEP   10, STRESS PERIOD    5

 DRAWDOWN WILL BE SAVED ON UNIT   52 AT END OF TIME STEP   10, STRESS PERIOD    5
1
  VOLUMETRIC BUDGET FOR ENTIRE MODEL AT END OF TIME STEP   10, STRESS PERIOD   5
  ------------------------------------------------------------------------------

     CUMULATIVE VOLUMES      L**3       RATES FOR THIS TIME STEP      L**3/T
     ------------------                 ------------------------

           IN:                                      IN:
           ---                                      ---
             STORAGE =      525706.5000               STORAGE =         311.6772
       CONSTANT HEAD =           0.0000         CONSTANT HEAD =           0.0000
               WELLS =           0.0000                 WELLS =           0.0000
     HEAD DEP BOUNDS =       87797.5078       HEAD DEP BOUNDS =         649.5802

            TOTAL IN =      613504.0000              TOTAL IN =         961.2574

          OUT:                                     OUT:
          ----                                     ----
             STORAGE =        3761.1741               STORAGE =         325.5635
       CONSTANT HEAD =           0.0000         CONSTANT HEAD =           0.0000
               WELLS =      100000.0000                 WELLS =           0.0000
     HEAD DEP BOUNDS =      509744.7188       HEAD DEP BOUNDS =         635.6929

           TOTAL OUT =      613505.8750             TOTAL OUT =         961.2564

            IN - OUT =          -1.8750              IN - OUT =       1.0376E-03

 PERCENT DISCREPANCY =          -0.00     PERCENT DISCREPANCY =           0.00






         TIME SUMMARY AT END OF TIME STEP   10 IN STRESS PERIOD    5
                    SECONDS     MINUTES      HOURS       DAYS        YEARS
                    -----------------------------------------------------------
   TIME STEP LENGTH  86400.      1440.0      24.000      1.0000     2.73785E-03
 STRESS PERIOD TIME 8.64000E+05  14400.      240.00      10.000     2.73785E-02
         TOTAL TIME 2.68704E+07 4.47840E+05  7464.0      311.00     0.85147    
1
 
 SOLVING FOR HEAD 

 OUTPUT CONTROL FOR STRESS PERIOD    5   TIME STEP   11
    SAVE HEAD FOR ALL LAYERS
    SAVE DRAWDOWN FOR ALL LAYERS
    SAVE BUDGET
    PRINT HEAD FOR ALL LAYERS
    PRINT BUDGET
 UBDSV1 SAVING "         STORAGE" ON UNIT  53 AT TIME STEP 11, STRESS PERIOD   5
 UBDSV2 SAVING "   CONSTANT HEAD" ON UNIT  53 AT TIME STEP 11, STRESS PERIOD   5
 UBDSV1 SAVING "FLOW RIGHT FACE " ON UNIT  53 AT TIME STEP 11, STRESS PERIOD   5
 UBDSV1 SAVING "FLOW FRONT FACE " ON UNIT  53 AT TIME STEP 11, STRESS PERIOD   5
 UBDSV1 SAVING "FLOW LOWER FACE " ON UNIT  53 AT TIME STEP 11, STRESS PERIOD   5
1
              HEAD IN LAYER   1 AT END OF TIME STEP  11 IN STRESS PERIOD    5
  ---------------------------------------------------------------------------

            1           2           3           4           5           6           7           8           9          10
 ........................................................................................................................
   1    9.998       8.977       7.933       6.869       5.804       4.750       3.671       2.527       1.301      1.8026E-03
   2    9.997       8.937       7.845       6.728       5.630       4.600       3.569       2.468       1.275      1.7635E-03
   3    9.997       8.864       7.676       6.438       5.247       4.292       3.374       2.362       1.229      1.6966E-03
   4    9.997       8.782       7.467       6.023       4.618       3.852       3.135       2.246       1.183      1.6288E-03
   5    9.997       8.740       7.342       5.700       3.951       3.505       2.992       2.191       1.163      1.6009E-03
   6    9.997       8.792       7.486       6.050       4.648       3.881       3.160       2.265       1.192      1.6430E-03
   7    9.997       8.886       7.719       6.495       5.312       4.356       3.429       2.402       1.250      1.7274E-03
   8    9.998       8.976       7.919       6.830       5.745       4.713       3.664       2.536       1.310      1.8161E-03
   9    9.998       9.039       8.052       7.034       5.993       4.932       3.822       2.634       1.357      1.8842E-03
  10    9.998       9.071       8.117       7.130       6.105       5.035       3.900       2.684       1.381      1.9202E-03
1
              HEAD IN LAYER   2 AT END OF TIME STEP  11 IN STRESS PERIOD    5
  ---------------------------------------------------------------------------

            1           2           3           4           5           6           7           8           9          10
 ........................................................................................................................
   1    9.997       8.974       7.927       6.861       5.796       4.741       3.663       2.520       1.297      3.5638E-03
   2    9.997       8.933       7.839       6.721       5.623       4.592       3.561       2.461       1.270      3.4905E-03
   3    9.997       8.860       7.671       6.434       5.248       4.288       3.368       2.356       1.225      3.3653E-03
   4    9.997       8.778       7.466       6.032       4.649       3.861       3.132       2.241       1.179      3.2381E-03
   5    9.997       8.738       7.345       5.732       4.061       3.537       2.994       2.187       1.160      3.1856E-03
   6    9.997       8.789       7.485       6.059       4.679       3.890       3.157       2.259       1.188      3.2648E-03
   7    9.997       8.883       7.714       6.492       5.313       4.353       3.423       2.396       1.246      3.4235E-03
   8    9.997       8.972       7.913       6.823       5.738       4.705       3.656       2.530       1.306      3.5895E-03
   9    9.998       9.035       8.047       7.027       5.984       4.923       3.814       2.627       1.352      3.7166E-03
  10    9.998       9.067       8.112       7.122       6.096       5.026       3.892       2.677       1.377      3.7836E-03
1
              HEAD IN LAYER   3 AT END OF TIME STEP  11 IN STRESS PERIOD    5
  ---------------------------------------------------------------------------

            1           2           3           4           5           6           7           8           9          10
 ........................................................................................................................
   1    9.997       8.971       7.922       6.855       5.789       4.734       3.656       2.514       1.293      3.8340E-03
   2    9.997       8.931       7.834       6.716       5.617       4.586       3.554       2.455       1.266      3.7555E-03
   3    9.997       8.858       7.668       6.432       5.248       4.285       3.362       2.351       1.221      3.6214E-03
   4    9.997       8.776       7.464       6.040       4.675       3.869       3.130       2.237       1.175      3.4854E-03
   5    9.997       8.736       7.347       5.756       4.149       3.565       2.996       2.183       1.156      3.4294E-03
   6    9.997       8.786       7.484       6.066       4.705       3.898       3.155       2.255       1.185      3.5141E-03
   7    9.997       8.880       7.710       6.490       5.314       4.350       3.417       2.391       1.242      3.6841E-03
   8    9.997       8.970       7.909       6.818       5.733       4.699       3.650       2.524       1.302      3.8621E-03
   9    9.998       9.033       8.042       7.021       5.978       4.916       3.808       2.621       1.348      3.9983E-03
  10    9.998       9.065       8.107       7.117       6.089       5.019       3.885       2.671       1.372      4.0702E-03
1
              HEAD IN LAYER   4 AT END OF TIME STEP  11 IN STRESS PERIOD    5
  ---------------------------------------------------------------------------

            1           2           3           4           5           6           7           8           9          10
 ........................................................................................................................
   1    9.997       8.970       7.920       6.852       5.785       4.730       3.652       2.511       1.291      3.8576E-03
   2    9.997       8.929       7.832       6.713       5.614       4.582       3.551       2.452       1.264      3.7786E-03
   3    9.997       8.857       7.666       6.431       5.249       4.283       3.359       2.348       1.219      3.6438E-03
   4    9.997       8.775       7.464       6.043       4.688       3.873       3.129       2.234       1.173      3.5071E-03
   5    9.997       8.735       7.348       5.769       4.192       3.579       2.997       2.181       1.155      3.4511E-03
   6    9.997       8.785       7.483       6.070       4.718       3.902       3.154       2.253       1.183      3.5361E-03
   7    9.997       8.879       7.709       6.489       5.315       4.348       3.415       2.388       1.240      3.7070E-03
   8    9.997       8.968       7.907       6.815       5.730       4.695       3.646       2.521       1.300      3.8861E-03
   9    9.998       9.032       8.040       7.018       5.975       4.913       3.804       2.618       1.346      4.0232E-03
  10    9.998       9.064       8.105       7.114       6.086       5.015       3.882       2.668       1.370      4.0955E-03

 HEAD WILL BE SAVED ON UNIT   51 AT END OF TIME STEP   11, STRESS PERIOD    5

 DRAWDOWN WILL BE SAVED ON UNIT   52 AT END OF TIME STEP   11, STRESS PERIOD    5
1
  VOLUMETRIC BUDGET FOR ENTIRE MODEL AT END OF TIME STEP   11, STRESS PERIOD   5
  ------------------------------------------------------------------------------

     CUMULATIVE VOLUMES      L**3       RATES FOR THIS TIME STEP      L**3/T
     ------------------                 ------------------------

           IN:                                      IN:
           ---                                      ---
             STORAGE =      526006.8125               STORAGE =         300.3375
       CONSTANT HEAD =           0.0000         CONSTANT HEAD =           0.0000
               WELLS =           0.0000                 WELLS =           0.0000
     HEAD DEP BOUNDS =       88448.1719       HEAD DEP BOUNDS =         650.6651

            TOTAL IN =      614455.0000              TOTAL IN =         951.0026

          OUT:                                     OUT:
          ----                                     ----
             STORAGE =        4077.9417               STORAGE =         316.7676
       CONSTANT HEAD =           0.0000         CONSTANT HEAD =           0.0000
               WELLS =      100000.0000                 WELLS =           0.0000
     HEAD DEP BOUNDS =      510378.9375       HEAD DEP BOUNDS =         634.2270

           TOTAL OUT =      614456.8750             TOTAL OUT =         950.9946

            IN - OUT =          -1.8750              IN - OUT =       7.9346E-03

 PERCENT DISCREPANCY =          -0.00     PERCENT DISCREPANCY =           0.00






         TIME SUMMARY AT END OF TIME STEP   11 IN STRESS PERIOD    5
                    SECONDS     MINUTES      HOURS       DAYS        YEARS
                    -----------------------------------------------------------
   TIME STEP LENGTH  86400.      1440.0      24.000      1.0000     2.73785E-03
 STRESS PERIOD TIME 9.50400E+05  15840.      264.00      11.000     3.01164E-02
         TOTAL TIME 2.69568E+07 4.49280E+05  7488.0      312.00     0.85421    
1
 
 SOLVING FOR HEAD 

 OUTPUT CONTROL FOR STRESS PERIOD    5   TIME STEP   12
    SAVE HEAD FOR ALL LAYERS
    SAVE DRAWDOWN FOR ALL LAYERS
    SAVE BUDGET
    PRINT HEAD FOR ALL LAYERS
    PRINT BUDGET
 UBDSV1 SAVING "         STORAGE" ON UNIT  53 AT TIME STEP 12, STRESS PERIOD   5
 UBDSV2 SAVING "   CONSTANT HEAD" ON UNIT  53 AT TIME STEP 12, STRESS PERIOD   5
 UBDSV1 SAVING "FLOW RIGHT FACE " ON UNIT  53 AT TIME STEP 12, STRESS PERIOD   5
 UBDSV1 SAVING "FLOW FRONT FACE " ON UNIT  53 AT TIME STEP 12, STRESS PERIOD   5
 UBDSV1 SAVING "FLOW LOWER FACE " ON UNIT  53 AT TIME STEP 12, STRESS PERIOD   5
1
              HEAD IN LAYER   1 AT END OF TIME STEP  12 IN STRESS PERIOD    5
  ---------------------------------------------------------------------------

            1           2           3           4           5           6           7           8           9          10
 ........................................................................................................................
   1    9.998       8.975       7.928       6.863       5.797       4.742       3.664       2.521       1.298      1.7980E-03
   2    9.997       8.935       7.841       6.723       5.624       4.594       3.562       2.462       1.272      1.7589E-03
   3    9.997       8.862       7.673       6.436       5.249       4.290       3.369       2.357       1.226      1.6922E-03
   4    9.997       8.780       7.468       6.035       4.650       3.862       3.133       2.242       1.180      1.6248E-03
   5    9.997       8.740       7.347       5.733       4.057       3.538       2.995       2.187       1.161      1.5971E-03
   6    9.997       8.791       7.487       6.061       4.680       3.891       3.158       2.260       1.190      1.6390E-03
   7    9.997       8.884       7.716       6.494       5.315       4.354       3.424       2.397       1.247      1.7232E-03
   8    9.998       8.974       7.915       6.824       5.740       4.706       3.657       2.531       1.308      1.8117E-03
   9    9.998       9.037       8.048       7.028       5.986       4.925       3.816       2.628       1.354      1.8800E-03
  10    9.998       9.069       8.113       7.124       6.098       5.027       3.894       2.679       1.378      1.9158E-03
1
              HEAD IN LAYER   2 AT END OF TIME STEP  12 IN STRESS PERIOD    5
  ---------------------------------------------------------------------------

            1           2           3           4           5           6           7           8           9          10
 ........................................................................................................................
   1    9.997       8.971       7.922       6.855       5.788       4.733       3.656       2.515       1.294      3.5553E-03
   2    9.997       8.931       7.835       6.716       5.617       4.586       3.554       2.456       1.267      3.4821E-03
   3    9.997       8.859       7.669       6.434       5.251       4.286       3.363       2.351       1.222      3.3571E-03
   4    9.997       8.777       7.467       6.045       4.682       3.872       3.131       2.237       1.176      3.2304E-03
   5    9.997       8.737       7.351       5.764       4.156       3.570       2.998       2.183       1.157      3.1785E-03
   6    9.997       8.788       7.486       6.071       4.712       3.901       3.156       2.255       1.186      3.2573E-03
   7    9.997       8.881       7.711       6.492       5.317       4.351       3.418       2.391       1.243      3.4156E-03
   8    9.997       8.970       7.909       6.818       5.733       4.699       3.650       2.524       1.303      3.5815E-03
   9    9.998       9.033       8.042       7.021       5.977       4.916       3.808       2.622       1.349      3.7086E-03
  10    9.998       9.065       8.107       7.116       6.089       5.018       3.885       2.672       1.374      3.7757E-03
1
              HEAD IN LAYER   3 AT END OF TIME STEP  12 IN STRESS PERIOD    5
  ---------------------------------------------------------------------------

            1           2           3           4           5           6           7           8           9          10
 ........................................................................................................................
   1    9.997       8.968       7.917       6.849       5.782       4.726       3.649       2.509       1.290      3.8250E-03
   2    9.997       8.928       7.830       6.711       5.612       4.579       3.547       2.450       1.263      3.7465E-03
   3    9.997       8.856       7.665       6.432       5.252       4.283       3.357       2.346       1.218      3.6127E-03
   4    9.997       8.775       7.466       6.052       4.707       3.880       3.129       2.233       1.172      3.4773E-03
   5    9.997       8.736       7.353       5.788       4.235       3.597       3.000       2.180       1.154      3.4220E-03
   6    9.997       8.786       7.485       6.079       4.737       3.910       3.154       2.251       1.182      3.5062E-03
   7    9.997       8.878       7.708       6.490       5.318       4.348       3.413       2.386       1.239      3.6757E-03
   8    9.997       8.967       7.905       6.813       5.728       4.693       3.643       2.519       1.299      3.8536E-03
   9    9.998       9.031       8.038       7.015       5.971       4.909       3.801       2.616       1.345      3.9898E-03
  10    9.998       9.063       8.103       7.111       6.082       5.011       3.879       2.666       1.370      4.0617E-03
1
              HEAD IN LAYER   4 AT END OF TIME STEP  12 IN STRESS PERIOD    5
  ---------------------------------------------------------------------------

            1           2           3           4           5           6           7           8           9          10
 ........................................................................................................................
   1    9.997       8.967       7.915       6.846       5.778       4.722       3.645       2.506       1.288      3.8486E-03
   2    9.997       8.927       7.828       6.708       5.609       4.576       3.544       2.447       1.261      3.7696E-03
   3    9.997       8.855       7.664       6.431       5.252       4.282       3.355       2.343       1.216      3.6351E-03
   4    9.997       8.774       7.466       6.056       4.719       3.884       3.128       2.230       1.171      3.4991E-03
   5    9.997       8.735       7.355       5.800       4.273       3.611       3.002       2.178       1.152      3.4437E-03
   6    9.997       8.785       7.485       6.083       4.750       3.914       3.153       2.249       1.181      3.5283E-03
   7    9.997       8.877       7.707       6.489       5.319       4.347       3.410       2.383       1.238      3.6987E-03
   8    9.997       8.966       7.903       6.811       5.726       4.690       3.640       2.516       1.297      3.8776E-03
   9    9.998       9.029       8.036       7.013       5.968       4.906       3.798       2.613       1.343      4.0147E-03
  10    9.998       9.061       8.101       7.108       6.079       5.008       3.875       2.663       1.368      4.0870E-03

 HEAD WILL BE SAVED ON UNIT   51 AT END OF TIME STEP   12, STRESS PERIOD    5

 DRAWDOWN WILL BE SAVED ON UNIT   52 AT END OF TIME STEP   12, STRESS PERIOD    5
1
  VOLUMETRIC BUDGET FOR ENTIRE MODEL AT END OF TIME STEP   12, STRESS PERIOD   5
  ------------------------------------------------------------------------------

     CUMULATIVE VOLUMES      L**3       RATES FOR THIS TIME STEP      L**3/T
     ------------------                 ------------------------

           IN:                                      IN:
           ---                                      ---
             STORAGE =      526296.6250               STORAGE =         289.8154
       CONSTANT HEAD =           0.0000         CONSTANT HEAD =           0.0000
               WELLS =           0.0000                 WELLS =           0.0000
     HEAD DEP BOUNDS =       89099.8594       HEAD DEP BOUNDS =         651.6879

            TOTAL IN =      615396.5000              TOTAL IN =         941.5033

          OUT:                                     OUT:
          ----                                     ----
             STORAGE =        4386.6562               STORAGE =         308.7148
       CONSTANT HEAD =           0.0000         CONSTANT HEAD =           0.0000
               WELLS =      100000.0000                 WELLS =           0.0000
     HEAD DEP BOUNDS =      511011.7188       HEAD DEP BOUNDS =         632.7786

           TOTAL OUT =      615398.3750             TOTAL OUT =         941.4934

            IN - OUT =          -1.8750              IN - OUT =       9.8877E-03

 PERCENT DISCREPANCY =          -0.00     PERCENT DISCREPANCY =           0.00






         TIME SUMMARY AT END OF TIME STEP   12 IN STRESS PERIOD    5
                    SECONDS     MINUTES      HOURS       DAYS        YEARS
                    -----------------------------------------------------------
   TIME STEP LENGTH  86400.      1440.0      24.000      1.0000     2.73785E-03
 STRESS PERIOD TIME 1.03680E+06  17280.      288.00      12.000     3.28542E-02
         TOTAL TIME 2.70432E+07 4.50720E+05  7512.0      313.00     0.85695    
1
 
 SOLVING FOR HEAD 

 OUTPUT CONTROL FOR STRESS PERIOD    5   TIME STEP   13
    SAVE HEAD FOR ALL LAYERS
    SAVE DRAWDOWN FOR ALL LAYERS
    SAVE BUDGET
    PRINT HEAD FOR ALL LAYERS
    PRINT BUDGET
 UBDSV1 SAVING "         STORAGE" ON UNIT  53 AT TIME STEP 13, STRESS PERIOD   5
 UBDSV2 SAVING "   CONSTANT HEAD" ON UNIT  53 AT TIME STEP 13, STRESS PERIOD   5
 UBDSV1 SAVING "FLOW RIGHT FACE " ON UNIT  53 AT TIME STEP 13, STRESS PERIOD   5
 UBDSV1 SAVING "FLOW FRONT FACE " ON UNIT  53 AT TIME STEP 13, STRESS PERIOD   5
 UBDSV1 SAVING "FLOW LOWER FACE " ON UNIT  53 AT TIME STEP 13, STRESS PERIOD   5
1
              HEAD IN LAYER   1 AT END OF TIME STEP  13 IN STRESS PERIOD    5
  ---------------------------------------------------------------------------

            1           2           3           4           5           6           7           8           9          10
 ........................................................................................................................
   1    9.998       8.972       7.924       6.856       5.790       4.735       3.657       2.516       1.295      1.7934E-03
   2    9.997       8.933       7.836       6.718       5.619       4.587       3.555       2.457       1.269      1.7544E-03
   3    9.997       8.860       7.671       6.436       5.252       4.287       3.364       2.352       1.223      1.6878E-03
   4    9.997       8.779       7.469       6.047       4.682       3.873       3.132       2.238       1.177      1.6208E-03
   5    9.997       8.740       7.353       5.766       4.152       3.570       2.999       2.184       1.158      1.5933E-03
   6    9.997       8.790       7.488       6.073       4.713       3.903       3.157       2.256       1.187      1.6351E-03
   7    9.997       8.882       7.713       6.494       5.318       4.352       3.419       2.392       1.244      1.7191E-03
   8    9.998       8.971       7.911       6.820       5.735       4.700       3.651       2.526       1.305      1.8075E-03
   9    9.998       9.034       8.044       7.022       5.979       4.917       3.809       2.623       1.351      1.8756E-03
  10    9.998       9.066       8.108       7.118       6.090       5.020       3.887       2.673       1.375      1.9116E-03
1
              HEAD IN LAYER   2 AT END OF TIME STEP  13 IN STRESS PERIOD    5
  ---------------------------------------------------------------------------

            1           2           3           4           5           6           7           8           9          10
 ........................................................................................................................
   1    9.997       8.969       7.917       6.849       5.781       4.726       3.649       2.509       1.291      3.5469E-03
   2    9.997       8.929       7.830       6.711       5.612       4.579       3.547       2.450       1.264      3.4737E-03
   3    9.997       8.857       7.666       6.433       5.254       4.284       3.358       2.346       1.219      3.3491E-03
   4    9.997       8.777       7.468       6.057       4.713       3.883       3.130       2.233       1.173      3.2230E-03
   5    9.997       8.738       7.357       5.796       4.242       3.602       3.002       2.181       1.155      3.1716E-03
   6    9.997       8.787       7.488       6.084       4.743       3.913       3.155       2.252       1.183      3.2500E-03
   7    9.997       8.879       7.709       6.492       5.320       4.349       3.413       2.386       1.240      3.4079E-03
   8    9.997       8.968       7.905       6.813       5.729       4.693       3.644       2.519       1.300      3.5736E-03
   9    9.998       9.031       8.038       7.015       5.971       4.909       3.801       2.617       1.347      3.7007E-03
  10    9.998       9.063       8.103       7.110       6.082       5.011       3.879       2.667       1.371      3.7678E-03
1
              HEAD IN LAYER   3 AT END OF TIME STEP  13 IN STRESS PERIOD    5
  ---------------------------------------------------------------------------

            1           2           3           4           5           6           7           8           9          10
 ........................................................................................................................
   1    9.997       8.966       7.913       6.843       5.775       4.719       3.642       2.503       1.287      3.8160E-03
   2    9.997       8.926       7.826       6.706       5.607       4.573       3.541       2.445       1.260      3.7377E-03
   3    9.997       8.854       7.663       6.432       5.256       4.282       3.353       2.341       1.215      3.6042E-03
   4    9.997       8.775       7.468       6.065       4.737       3.892       3.128       2.229       1.170      3.4695E-03
   5    9.997       8.736       7.360       5.819       4.313       3.628       3.005       2.177       1.151      3.4148E-03
   6    9.997       8.785       7.487       6.092       4.768       3.922       3.154       2.247       1.180      3.4986E-03
   7    9.997       8.877       7.706       6.490       5.322       4.347       3.408       2.381       1.237      3.6675E-03
   8    9.997       8.965       7.901       6.809       5.724       4.687       3.637       2.514       1.297      3.8452E-03
   9    9.998       9.028       8.034       7.010       5.964       4.902       3.794       2.611       1.343      3.9814E-03
  10    9.998       9.060       8.098       7.105       6.075       5.004       3.872       2.661       1.367      4.0533E-03
1
              HEAD IN LAYER   4 AT END OF TIME STEP  13 IN STRESS PERIOD    5
  ---------------------------------------------------------------------------

            1           2           3           4           5           6           7           8           9          10
 ........................................................................................................................
   1    9.997       8.965       7.911       6.840       5.771       4.715       3.638       2.500       1.285      3.8396E-03
   2    9.997       8.925       7.824       6.704       5.605       4.570       3.538       2.442       1.258      3.7608E-03
   3    9.997       8.853       7.662       6.431       5.256       4.281       3.350       2.338       1.213      3.6266E-03
   4    9.997       8.774       7.468       6.070       4.749       3.897       3.128       2.227       1.168      3.4913E-03
   5    9.997       8.736       7.361       5.831       4.348       3.641       3.006       2.176       1.150      3.4365E-03
   6    9.997       8.784       7.487       6.096       4.780       3.927       3.153       2.245       1.178      3.5207E-03
   7    9.997       8.876       7.705       6.490       5.323       4.346       3.406       2.379       1.235      3.6905E-03
   8    9.997       8.964       7.899       6.806       5.721       4.684       3.634       2.511       1.295      3.8691E-03
   9    9.998       9.027       8.032       7.007       5.961       4.899       3.791       2.608       1.341      4.0062E-03
  10    9.998       9.059       8.096       7.102       6.072       5.001       3.869       2.658       1.365      4.0786E-03

 HEAD WILL BE SAVED ON UNIT   51 AT END OF TIME STEP   13, STRESS PERIOD    5

 DRAWDOWN WILL BE SAVED ON UNIT   52 AT END OF TIME STEP   13, STRESS PERIOD    5
1
  VOLUMETRIC BUDGET FOR ENTIRE MODEL AT END OF TIME STEP   13, STRESS PERIOD   5
  ------------------------------------------------------------------------------

     CUMULATIVE VOLUMES      L**3       RATES FOR THIS TIME STEP      L**3/T
     ------------------                 ------------------------

           IN:                                      IN:
           ---                                      ---
             STORAGE =      526575.9375               STORAGE =         279.3319
       CONSTANT HEAD =           0.0000         CONSTANT HEAD =           0.0000
               WELLS =           0.0000                 WELLS =           0.0000
     HEAD DEP BOUNDS =       89752.5078       HEAD DEP BOUNDS =         652.6486

            TOTAL IN =      616328.4375              TOTAL IN =         931.9805

          OUT:                                     OUT:
          ----                                     ----
             STORAGE =        4687.2788               STORAGE =         300.6228
       CONSTANT HEAD =           0.0000         CONSTANT HEAD =           0.0000
               WELLS =      100000.0000                 WELLS =           0.0000
     HEAD DEP BOUNDS =      511643.0625       HEAD DEP BOUNDS =         631.3536

           TOTAL OUT =      616330.3750             TOTAL OUT =         931.9763

            IN - OUT =          -1.9375              IN - OUT =       4.2114E-03

 PERCENT DISCREPANCY =          -0.00     PERCENT DISCREPANCY =           0.00






         TIME SUMMARY AT END OF TIME STEP   13 IN STRESS PERIOD    5
                    SECONDS     MINUTES      HOURS       DAYS        YEARS
                    -----------------------------------------------------------
   TIME STEP LENGTH  86400.      1440.0      24.000      1.0000     2.73785E-03
 STRESS PERIOD TIME 1.12320E+06  18720.      312.00      13.000     3.55921E-02
         TOTAL TIME 2.71296E+07 4.52160E+05  7536.0      314.00     0.85969    
1
 
 SOLVING FOR HEAD 

 OUTPUT CONTROL FOR STRESS PERIOD    5   TIME STEP   14
    SAVE HEAD FOR ALL LAYERS
    SAVE DRAWDOWN FOR ALL LAYERS
    SAVE BUDGET
    PRINT HEAD FOR ALL LAYERS
    PRINT BUDGET
 UBDSV1 SAVING "         STORAGE" ON UNIT  53 AT TIME STEP 14, STRESS PERIOD   5
 UBDSV2 SAVING "   CONSTANT HEAD" ON UNIT  53 AT TIME STEP 14, STRESS PERIOD   5
 UBDSV1 SAVING "FLOW RIGHT FACE " ON UNIT  53 AT TIME STEP 14, STRESS PERIOD   5
 UBDSV1 SAVING "FLOW FRONT FACE " ON UNIT  53 AT TIME STEP 14, STRESS PERIOD   5
 UBDSV1 SAVING "FLOW LOWER FACE " ON UNIT  53 AT TIME STEP 14, STRESS PERIOD   5
1
              HEAD IN LAYER   1 AT END OF TIME STEP  14 IN STRESS PERIOD    5
  ---------------------------------------------------------------------------

            1           2           3           4           5           6           7           8           9          10
 ........................................................................................................................
   1    9.998       8.970       7.919       6.850       5.783       4.727       3.650       2.510       1.292      1.7890E-03
   2    9.997       8.930       7.832       6.713       5.614       4.581       3.549       2.451       1.266      1.7500E-03
   3    9.997       8.858       7.668       6.435       5.256       4.286       3.359       2.347       1.220      1.6837E-03
   4    9.997       8.779       7.471       6.059       4.713       3.885       3.131       2.234       1.174      1.6167E-03
   5    9.997       8.740       7.359       5.797       4.238       3.602       3.003       2.182       1.156      1.5897E-03
   6    9.997       8.789       7.490       6.086       4.744       3.914       3.156       2.253       1.184      1.6311E-03
   7    9.997       8.881       7.711       6.494       5.322       4.351       3.414       2.387       1.242      1.7150E-03
   8    9.998       8.969       7.907       6.815       5.730       4.694       3.645       2.521       1.302      1.8033E-03
   9    9.998       9.032       8.039       7.017       5.972       4.910       3.802       2.618       1.348      1.8714E-03
  10    9.998       9.064       8.104       7.112       6.083       5.012       3.880       2.668       1.372      1.9073E-03
1
              HEAD IN LAYER   2 AT END OF TIME STEP  14 IN STRESS PERIOD    5
  ---------------------------------------------------------------------------

            1           2           3           4           5           6           7           8           9          10
 ........................................................................................................................
   1    9.997       8.966       7.913       6.843       5.774       4.718       3.642       2.504       1.288      3.5385E-03
   2    9.997       8.926       7.826       6.706       5.608       4.573       3.541       2.445       1.261      3.4655E-03
   3    9.997       8.855       7.664       6.434       5.258       4.283       3.353       2.341       1.216      3.3412E-03
   4    9.997       8.776       7.470       6.070       4.743       3.895       3.130       2.230       1.171      3.2157E-03
   5    9.997       8.738       7.363       5.827       4.320       3.633       3.007       2.178       1.152      3.1649E-03
   6    9.997       8.786       7.490       6.097       4.773       3.925       3.155       2.248       1.181      3.2429E-03
   7    9.997       8.877       7.707       6.492       5.324       4.349       3.409       2.382       1.238      3.4002E-03
   8    9.997       8.966       7.901       6.809       5.724       4.687       3.637       2.514       1.298      3.5658E-03
   9    9.998       9.029       8.033       7.009       5.964       4.902       3.794       2.612       1.344      3.6929E-03
  10    9.998       9.060       8.098       7.104       6.075       5.004       3.872       2.662       1.368      3.7600E-03
1
              HEAD IN LAYER   3 AT END OF TIME STEP  14 IN STRESS PERIOD    5
  ---------------------------------------------------------------------------

            1           2           3           4           5           6           7           8           9          10
 ........................................................................................................................
   1    9.997       8.964       7.908       6.837       5.768       4.711       3.635       2.498       1.284      3.8071E-03
   2    9.997       8.924       7.822       6.701       5.603       4.567       3.535       2.439       1.257      3.7289E-03
   3    9.997       8.853       7.661       6.432       5.260       4.281       3.348       2.336       1.213      3.5959E-03
   4    9.997       8.774       7.470       6.079       4.767       3.905       3.128       2.225       1.167      3.4619E-03
   5    9.997       8.737       7.367       5.849       4.384       3.658       3.010       2.175       1.149      3.4079E-03
   6    9.997       8.784       7.490       6.106       4.797       3.935       3.154       2.244       1.177      3.4911E-03
   7    9.997       8.875       7.704       6.491       5.327       4.347       3.404       2.377       1.234      3.6595E-03
   8    9.997       8.963       7.898       6.804       5.719       4.681       3.631       2.509       1.294      3.8368E-03
   9    9.998       9.026       8.029       7.004       5.958       4.895       3.788       2.606       1.340      3.9730E-03
  10    9.998       9.058       8.094       7.099       6.068       4.997       3.865       2.656       1.364      4.0450E-03
1
              HEAD IN LAYER   4 AT END OF TIME STEP  14 IN STRESS PERIOD    5
  ---------------------------------------------------------------------------

            1           2           3           4           5           6           7           8           9          10
 ........................................................................................................................
   1    9.997       8.962       7.906       6.834       5.764       4.708       3.631       2.495       1.282      3.8307E-03
   2    9.997       8.923       7.820       6.699       5.600       4.564       3.531       2.437       1.255      3.7520E-03
   3    9.997       8.851       7.660       6.432       5.261       4.280       3.346       2.334       1.211      3.6183E-03
   4    9.997       8.773       7.470       6.083       4.779       3.909       3.128       2.223       1.166      3.4837E-03
   5    9.997       8.736       7.369       5.861       4.415       3.671       3.012       2.173       1.147      3.4297E-03
   6    9.997       8.784       7.490       6.110       4.809       3.939       3.154       2.242       1.175      3.5132E-03
   7    9.997       8.874       7.703       6.491       5.328       4.346       3.402       2.374       1.232      3.6824E-03
   8    9.997       8.962       7.896       6.802       5.717       4.679       3.628       2.506       1.292      3.8608E-03
   9    9.998       9.025       8.027       7.001       5.955       4.892       3.785       2.603       1.338      3.9978E-03
  10    9.998       9.057       8.092       7.096       6.065       4.993       3.862       2.653       1.362      4.0702E-03

 HEAD WILL BE SAVED ON UNIT   51 AT END OF TIME STEP   14, STRESS PERIOD    5

 DRAWDOWN WILL BE SAVED ON UNIT   52 AT END OF TIME STEP   14, STRESS PERIOD    5
1
  VOLUMETRIC BUDGET FOR ENTIRE MODEL AT END OF TIME STEP   14, STRESS PERIOD   5
  ------------------------------------------------------------------------------

     CUMULATIVE VOLUMES      L**3       RATES FOR THIS TIME STEP      L**3/T
     ------------------                 ------------------------

           IN:                                      IN:
           ---                                      ---
             STORAGE =      526845.0000               STORAGE =         269.0426
       CONSTANT HEAD =           0.0000         CONSTANT HEAD =           0.0000
               WELLS =           0.0000                 WELLS =           0.0000
     HEAD DEP BOUNDS =       90406.0703       HEAD DEP BOUNDS =         653.5607

            TOTAL IN =      617251.0625              TOTAL IN =         922.6033

          OUT:                                     OUT:
          ----                                     ----
             STORAGE =        4979.9194               STORAGE =         292.6407
       CONSTANT HEAD =           0.0000         CONSTANT HEAD =           0.0000
               WELLS =      100000.0000                 WELLS =           0.0000
     HEAD DEP BOUNDS =      512273.0312       HEAD DEP BOUNDS =         629.9540

           TOTAL OUT =      617252.9375             TOTAL OUT =         922.5946

            IN - OUT =          -1.8750              IN - OUT =       8.6670E-03

 PERCENT DISCREPANCY =          -0.00     PERCENT DISCREPANCY =           0.00






         TIME SUMMARY AT END OF TIME STEP   14 IN STRESS PERIOD    5
                    SECONDS     MINUTES      HOURS       DAYS        YEARS
                    -----------------------------------------------------------
   TIME STEP LENGTH  86400.      1440.0      24.000      1.0000     2.73785E-03
 STRESS PERIOD TIME 1.20960E+06  20160.      336.00      14.000     3.83299E-02
         TOTAL TIME 2.72160E+07 4.53600E+05  7560.0      315.00     0.86242    
1
 
 SOLVING FOR HEAD 

 OUTPUT CONTROL FOR STRESS PERIOD    5   TIME STEP   15
    SAVE HEAD FOR ALL LAYERS
    SAVE DRAWDOWN FOR ALL LAYERS
    SAVE BUDGET
    PRINT HEAD FOR ALL LAYERS
    PRINT BUDGET
 UBDSV1 SAVING "         STORAGE" ON UNIT  53 AT TIME STEP 15, STRESS PERIOD   5
 UBDSV2 SAVING "   CONSTANT HEAD" ON UNIT  53 AT TIME STEP 15, STRESS PERIOD   5
 UBDSV1 SAVING "FLOW RIGHT FACE " ON UNIT  53 AT TIME STEP 15, STRESS PERIOD   5
 UBDSV1 SAVING "FLOW FRONT FACE " ON UNIT  53 AT TIME STEP 15, STRESS PERIOD   5
 UBDSV1 SAVING "FLOW LOWER FACE " ON UNIT  53 AT TIME STEP 15, STRESS PERIOD   5
1
              HEAD IN LAYER   1 AT END OF TIME STEP  15 IN STRESS PERIOD    5
  ---------------------------------------------------------------------------

            1           2           3           4           5           6           7           8           9          10
 ........................................................................................................................
   1    9.998       8.968       7.914       6.844       5.776       4.720       3.643       2.505       1.289      1.7845E-03
   2    9.997       8.928       7.828       6.708       5.609       4.575       3.542       2.446       1.263      1.7456E-03
   3    9.997       8.857       7.666       6.436       5.259       4.285       3.354       2.342       1.217      1.6796E-03
   4    9.997       8.778       7.472       6.072       4.744       3.897       3.131       2.230       1.172      1.6129E-03
   5    9.997       8.740       7.366       5.827       4.317       3.633       3.008       2.179       1.153      1.5862E-03
   6    9.997       8.788       7.492       6.099       4.774       3.926       3.156       2.249       1.182      1.6273E-03
   7    9.997       8.879       7.709       6.494       5.326       4.350       3.410       2.383       1.239      1.7108E-03
   8    9.998       8.967       7.903       6.811       5.726       4.688       3.639       2.516       1.299      1.7992E-03
   9    9.998       9.030       8.035       7.011       5.966       4.903       3.796       2.613       1.345      1.8671E-03
  10    9.998       9.062       8.100       7.106       6.076       5.005       3.873       2.663       1.369      1.9032E-03
1
              HEAD IN LAYER   2 AT END OF TIME STEP  15 IN STRESS PERIOD    5
  ---------------------------------------------------------------------------

            1           2           3           4           5           6           7           8           9          10
 ........................................................................................................................
   1    9.997       8.964       7.908       6.837       5.767       4.711       3.635       2.498       1.285      3.5303E-03
   2    9.997       8.924       7.823       6.702       5.603       4.567       3.535       2.440       1.258      3.4574E-03
   3    9.997       8.853       7.662       6.434       5.262       4.283       3.349       2.337       1.213      3.3334E-03
   4    9.997       8.775       7.473       6.083       4.772       3.908       3.130       2.226       1.168      3.2087E-03
   5    9.997       8.738       7.370       5.856       4.390       3.662       3.012       2.176       1.150      3.1585E-03
   6    9.997       8.786       7.492       6.110       4.803       3.938       3.155       2.245       1.178      3.2360E-03
   7    9.997       8.876       7.705       6.493       5.329       4.348       3.405       2.377       1.235      3.3928E-03
   8    9.997       8.964       7.898       6.805       5.720       4.682       3.631       2.509       1.295      3.5581E-03
   9    9.998       9.026       8.029       7.004       5.958       4.895       3.788       2.607       1.341      3.6851E-03
  10    9.998       9.058       8.094       7.098       6.068       4.997       3.865       2.657       1.365      3.7522E-03
1
              HEAD IN LAYER   3 AT END OF TIME STEP  15 IN STRESS PERIOD    5
  ---------------------------------------------------------------------------

            1           2           3           4           5           6           7           8           9          10
 ........................................................................................................................
   1    9.997       8.961       7.904       6.831       5.761       4.704       3.628       2.493       1.281      3.7983E-03
   2    9.997       8.922       7.819       6.697       5.598       4.562       3.528       2.434       1.255      3.7202E-03
   3    9.997       8.851       7.660       6.433       5.264       4.281       3.344       2.332       1.210      3.5877E-03
   4    9.997       8.774       7.473       6.092       4.795       3.917       3.129       2.222       1.165      3.4545E-03
   5    9.997       8.738       7.374       5.878       4.449       3.687       3.015       2.173       1.147      3.4012E-03
   6    9.997       8.784       7.493       6.119       4.826       3.947       3.155       2.241       1.175      3.4839E-03
   7    9.997       8.874       7.703       6.492       5.331       4.347       3.400       2.372       1.231      3.6516E-03
   8    9.997       8.961       7.894       6.800       5.715       4.676       3.625       2.504       1.291      3.8286E-03
   9    9.998       9.024       8.025       6.998       5.952       4.888       3.781       2.601       1.337      3.9647E-03
  10    9.998       9.056       8.090       7.093       6.061       4.990       3.859       2.651       1.361      4.0367E-03
1
              HEAD IN LAYER   4 AT END OF TIME STEP  15 IN STRESS PERIOD    5
  ---------------------------------------------------------------------------

            1           2           3           4           5           6           7           8           9          10
 ........................................................................................................................
   1    9.997       8.960       7.902       6.828       5.758       4.701       3.624       2.490       1.279      3.8218E-03
   2    9.997       8.921       7.817       6.695       5.596       4.559       3.525       2.432       1.253      3.7433E-03
   3    9.997       8.850       7.658       6.433       5.265       4.280       3.342       2.329       1.208      3.6101E-03
   4    9.997       8.773       7.473       6.097       4.807       3.922       3.129       2.220       1.163      3.4764E-03
   5    9.997       8.737       7.376       5.889       4.477       3.699       3.017       2.171       1.145      3.4231E-03
   6    9.997       8.783       7.493       6.124       4.837       3.952       3.154       2.239       1.173      3.5061E-03
   7    9.997       8.873       7.702       6.492       5.332       4.346       3.398       2.370       1.230      3.6745E-03
   8    9.997       8.960       7.892       6.798       5.713       4.673       3.622       2.501       1.289      3.8525E-03
   9    9.998       9.023       8.023       6.996       5.949       4.885       3.778       2.598       1.335      3.9895E-03
  10    9.998       9.054       8.088       7.090       6.058       4.986       3.856       2.648       1.359      4.0619E-03

 HEAD WILL BE SAVED ON UNIT   51 AT END OF TIME STEP   15, STRESS PERIOD    5

 DRAWDOWN WILL BE SAVED ON UNIT   52 AT END OF TIME STEP   15, STRESS PERIOD    5
1
  VOLUMETRIC BUDGET FOR ENTIRE MODEL AT END OF TIME STEP   15, STRESS PERIOD   5
  ------------------------------------------------------------------------------

     CUMULATIVE VOLUMES      L**3       RATES FOR THIS TIME STEP      L**3/T
     ------------------                 ------------------------

           IN:                                      IN:
           ---                                      ---
             STORAGE =      527104.5000               STORAGE =         259.5097
       CONSTANT HEAD =           0.0000         CONSTANT HEAD =           0.0000
               WELLS =           0.0000                 WELLS =           0.0000
     HEAD DEP BOUNDS =       91060.4766       HEAD DEP BOUNDS =         654.4041

            TOTAL IN =      618165.0000              TOTAL IN =         913.9138

          OUT:                                     OUT:
          ----                                     ----
             STORAGE =        5265.2588               STORAGE =         285.3392
       CONSTANT HEAD =           0.0000         CONSTANT HEAD =           0.0000
               WELLS =      100000.0000                 WELLS =           0.0000
     HEAD DEP BOUNDS =      512901.5938       HEAD DEP BOUNDS =         628.5770

           TOTAL OUT =      618166.8750             TOTAL OUT =         913.9161

            IN - OUT =          -1.8750              IN - OUT =      -2.3193E-03

 PERCENT DISCREPANCY =          -0.00     PERCENT DISCREPANCY =          -0.00






         TIME SUMMARY AT END OF TIME STEP   15 IN STRESS PERIOD    5
                    SECONDS     MINUTES      HOURS       DAYS        YEARS
                    -----------------------------------------------------------
   TIME STEP LENGTH  86400.      1440.0      24.000      1.0000     2.73785E-03
 STRESS PERIOD TIME 1.29600E+06  21600.      360.00      15.000     4.10678E-02
         TOTAL TIME 2.73024E+07 4.55040E+05  7584.0      316.00     0.86516    
1
 
 SOLVING FOR HEAD 

 OUTPUT CONTROL FOR STRESS PERIOD    5   TIME STEP   16
    SAVE HEAD FOR ALL LAYERS
    SAVE DRAWDOWN FOR ALL LAYERS
    SAVE BUDGET
    PRINT HEAD FOR ALL LAYERS
    PRINT BUDGET
 UBDSV1 SAVING "         STORAGE" ON UNIT  53 AT TIME STEP 16, STRESS PERIOD   5
 UBDSV2 SAVING "   CONSTANT HEAD" ON UNIT  53 AT TIME STEP 16, STRESS PERIOD   5
 UBDSV1 SAVING "FLOW RIGHT FACE " ON UNIT  53 AT TIME STEP 16, STRESS PERIOD   5
 UBDSV1 SAVING "FLOW FRONT FACE " ON UNIT  53 AT TIME STEP 16, STRESS PERIOD   5
 UBDSV1 SAVING "FLOW LOWER FACE " ON UNIT  53 AT TIME STEP 16, STRESS PERIOD   5
1
              HEAD IN LAYER   1 AT END OF TIME STEP  16 IN STRESS PERIOD    5
  ---------------------------------------------------------------------------

            1           2           3           4           5           6           7           8           9          10
 ........................................................................................................................
   1    9.998       8.965       7.910       6.838       5.769       4.712       3.636       2.500       1.286      1.7801E-03
   2    9.997       8.926       7.824       6.704       5.605       4.569       3.536       2.441       1.260      1.7412E-03
   3    9.997       8.855       7.664       6.436       5.264       4.284       3.350       2.338       1.215      1.6754E-03
   4    9.997       8.777       7.475       6.085       4.773       3.909       3.131       2.227       1.169      1.6092E-03
   5    9.997       8.740       7.372       5.857       4.388       3.663       3.012       2.177       1.151      1.5828E-03
   6    9.997       8.788       7.494       6.112       4.803       3.939       3.156       2.246       1.179      1.6237E-03
   7    9.997       8.878       7.707       6.495       5.330       4.349       3.406       2.378       1.236      1.7069E-03
   8    9.998       8.965       7.900       6.806       5.721       4.683       3.633       2.511       1.296      1.7951E-03
   9    9.998       9.028       8.031       7.005       5.959       4.896       3.789       2.608       1.342      1.8630E-03
  10    9.998       9.059       8.095       7.100       6.069       4.998       3.867       2.658       1.367      1.8990E-03
1
              HEAD IN LAYER   2 AT END OF TIME STEP  16 IN STRESS PERIOD    5
  ---------------------------------------------------------------------------

            1           2           3           4           5           6           7           8           9          10
 ........................................................................................................................
   1    9.997       8.961       7.904       6.831       5.761       4.704       3.628       2.493       1.282      3.5220E-03
   2    9.997       8.922       7.819       6.698       5.599       4.562       3.529       2.435       1.255      3.4493E-03
   3    9.997       8.852       7.661       6.435       5.266       4.282       3.345       2.332       1.211      3.3258E-03
   4    9.997       8.775       7.475       6.097       4.800       3.920       3.130       2.223       1.166      3.2019E-03
   5    9.997       8.739       7.377       5.885       4.455       3.691       3.017       2.174       1.148      3.1524E-03
   6    9.997       8.785       7.495       6.124       4.831       3.950       3.156       2.242       1.176      3.2293E-03
   7    9.997       8.875       7.704       6.494       5.334       4.348       3.401       2.373       1.232      3.3854E-03
   8    9.997       8.962       7.894       6.801       5.716       4.676       3.626       2.505       1.292      3.5504E-03
   9    9.998       9.024       8.025       6.998       5.951       4.888       3.781       2.602       1.338      3.6773E-03
  10    9.998       9.056       8.089       7.092       6.061       4.989       3.859       2.652       1.362      3.7445E-03
1
              HEAD IN LAYER   3 AT END OF TIME STEP  16 IN STRESS PERIOD    5
  ---------------------------------------------------------------------------

            1           2           3           4           5           6           7           8           9          10
 ........................................................................................................................
   1    9.997       8.959       7.900       6.825       5.754       4.697       3.621       2.487       1.278      3.7896E-03
   2    9.997       8.920       7.815       6.693       5.594       4.556       3.522       2.429       1.252      3.7117E-03
   3    9.997       8.850       7.658       6.435       5.269       4.281       3.340       2.327       1.207      3.5796E-03
   4    9.997       8.774       7.476       6.106       4.823       3.930       3.130       2.219       1.162      3.4474E-03
   5    9.997       8.738       7.381       5.906       4.508       3.715       3.021       2.171       1.145      3.3948E-03
   6    9.997       8.784       7.496       6.133       4.853       3.960       3.156       2.238       1.172      3.4769E-03
   7    9.997       8.872       7.702       6.494       5.336       4.347       3.397       2.368       1.229      3.6438E-03
   8    9.997       8.959       7.891       6.797       5.712       4.671       3.620       2.499       1.288      3.8205E-03
   9    9.998       9.022       8.021       6.993       5.945       4.882       3.775       2.596       1.334      3.9565E-03
  10    9.998       9.053       8.085       7.087       6.055       4.983       3.852       2.646       1.358      4.0284E-03
1
              HEAD IN LAYER   4 AT END OF TIME STEP  16 IN STRESS PERIOD    5
  ---------------------------------------------------------------------------

            1           2           3           4           5           6           7           8           9          10
 ........................................................................................................................
   1    9.997       8.958       7.897       6.823       5.751       4.694       3.618       2.484       1.276      3.8130E-03
   2    9.997       8.918       7.813       6.691       5.592       4.554       3.519       2.426       1.250      3.7348E-03
   3    9.997       8.849       7.657       6.434       5.270       4.280       3.338       2.325       1.205      3.6021E-03
   4    9.997       8.773       7.476       6.111       4.834       3.935       3.130       2.217       1.161      3.4694E-03
   5    9.997       8.738       7.383       5.917       4.534       3.727       3.022       2.170       1.143      3.4168E-03
   6    9.997       8.783       7.496       6.138       4.864       3.965       3.155       2.236       1.171      3.4992E-03
   7    9.997       8.871       7.701       6.494       5.337       4.347       3.395       2.366       1.227      3.6668E-03
   8    9.997       8.958       7.889       6.794       5.710       4.668       3.617       2.496       1.286      3.8444E-03
   9    9.998       9.020       8.019       6.990       5.942       4.878       3.772       2.593       1.332      3.9812E-03
  10    9.998       9.052       8.083       7.084       6.051       4.979       3.849       2.643       1.356      4.0536E-03

 HEAD WILL BE SAVED ON UNIT   51 AT END OF TIME STEP   16, STRESS PERIOD    5

 DRAWDOWN WILL BE SAVED ON UNIT   52 AT END OF TIME STEP   16, STRESS PERIOD    5
1
  VOLUMETRIC BUDGET FOR ENTIRE MODEL AT END OF TIME STEP   16, STRESS PERIOD   5
  ------------------------------------------------------------------------------

     CUMULATIVE VOLUMES      L**3       RATES FOR THIS TIME STEP      L**3/T
     ------------------                 ------------------------

           IN:                                      IN:
           ---                                      ---
             STORAGE =      527355.2500               STORAGE =         250.7232
       CONSTANT HEAD =           0.0000         CONSTANT HEAD =           0.0000
               WELLS =           0.0000                 WELLS =           0.0000
     HEAD DEP BOUNDS =       91715.6797       HEAD DEP BOUNDS =         655.1995

            TOTAL IN =      619070.9375              TOTAL IN =         905.9227

          OUT:                                     OUT:
          ----                                     ----
             STORAGE =        5543.9570               STORAGE =         278.6985
       CONSTANT HEAD =           0.0000         CONSTANT HEAD =           0.0000
               WELLS =      100000.0000                 WELLS =           0.0000
     HEAD DEP BOUNDS =      513528.8125       HEAD DEP BOUNDS =         627.2254

           TOTAL OUT =      619072.7500             TOTAL OUT =         905.9239

            IN - OUT =          -1.8125              IN - OUT =      -1.1597E-03

 PERCENT DISCREPANCY =          -0.00     PERCENT DISCREPANCY =          -0.00






         TIME SUMMARY AT END OF TIME STEP   16 IN STRESS PERIOD    5
                    SECONDS     MINUTES      HOURS       DAYS        YEARS
                    -----------------------------------------------------------
   TIME STEP LENGTH  86400.      1440.0      24.000      1.0000     2.73785E-03
 STRESS PERIOD TIME 1.38240E+06  23040.      384.00      16.000     4.38056E-02
         TOTAL TIME 2.73888E+07 4.56480E+05  7608.0      317.00     0.86790    
1
 
 SOLVING FOR HEAD 

 OUTPUT CONTROL FOR STRESS PERIOD    5   TIME STEP   17
    SAVE HEAD FOR ALL LAYERS
    SAVE DRAWDOWN FOR ALL LAYERS
    SAVE BUDGET
    PRINT HEAD FOR ALL LAYERS
    PRINT BUDGET
 UBDSV1 SAVING "         STORAGE" ON UNIT  53 AT TIME STEP 17, STRESS PERIOD   5
 UBDSV2 SAVING "   CONSTANT HEAD" ON UNIT  53 AT TIME STEP 17, STRESS PERIOD   5
 UBDSV1 SAVING "FLOW RIGHT FACE " ON UNIT  53 AT TIME STEP 17, STRESS PERIOD   5
 UBDSV1 SAVING "FLOW FRONT FACE " ON UNIT  53 AT TIME STEP 17, STRESS PERIOD   5
 UBDSV1 SAVING "FLOW LOWER FACE " ON UNIT  53 AT TIME STEP 17, STRESS PERIOD   5
1
              HEAD IN LAYER   1 AT END OF TIME STEP  17 IN STRESS PERIOD    5
  ---------------------------------------------------------------------------

            1           2           3           4           5           6           7           8           9          10
 ........................................................................................................................
   1    9.997       8.963       7.905       6.832       5.762       4.705       3.629       2.494       1.283      1.7758E-03
   2    9.997       8.924       7.821       6.699       5.600       4.563       3.530       2.436       1.257      1.7370E-03
   3    9.997       8.854       7.663       6.437       5.268       4.284       3.346       2.333       1.212      1.6714E-03
   4    9.997       8.777       7.478       6.098       4.801       3.921       3.131       2.224       1.167      1.6056E-03
   5    9.997       8.741       7.379       5.886       4.453       3.691       3.018       2.175       1.149      1.5796E-03
   6    9.997       8.787       7.497       6.125       4.832       3.952       3.157       2.243       1.177      1.6203E-03
   7    9.997       8.876       7.706       6.496       5.335       4.349       3.402       2.374       1.233      1.7030E-03
   8    9.997       8.963       7.896       6.802       5.718       4.678       3.627       2.506       1.293      1.7909E-03
   9    9.998       9.025       8.027       7.000       5.953       4.890       3.783       2.603       1.339      1.8587E-03
  10    9.998       9.057       8.091       7.094       6.062       4.991       3.860       2.653       1.364      1.8948E-03
1
              HEAD IN LAYER   2 AT END OF TIME STEP  17 IN STRESS PERIOD    5
  ---------------------------------------------------------------------------

            1           2           3           4           5           6           7           8           9          10
 ........................................................................................................................
   1    9.997       8.959       7.900       6.825       5.754       4.697       3.621       2.488       1.279      3.5139E-03
   2    9.997       8.920       7.815       6.694       5.595       4.557       3.523       2.430       1.253      3.4414E-03
   3    9.997       8.851       7.659       6.437       5.271       4.282       3.341       2.328       1.208      3.3184E-03
   4    9.997       8.775       7.479       6.110       4.828       3.933       3.131       2.220       1.163      3.1953E-03
   5    9.997       8.740       7.385       5.912       4.514       3.719       3.022       2.172       1.146      3.1465E-03
   6    9.997       8.785       7.498       6.137       4.858       3.963       3.157       2.239       1.173      3.2229E-03
   7    9.997       8.873       7.703       6.496       5.338       4.348       3.397       2.369       1.230      3.3782E-03
   8    9.997       8.960       7.891       6.797       5.712       4.671       3.620       2.500       1.289      3.5428E-03
   9    9.998       9.022       8.021       6.993       5.945       4.881       3.775       2.597       1.335      3.6697E-03
  10    9.998       9.054       8.085       7.086       6.054       4.982       3.852       2.647       1.360      3.7368E-03
1
              HEAD IN LAYER   3 AT END OF TIME STEP  17 IN STRESS PERIOD    5
  ---------------------------------------------------------------------------

            1           2           3           4           5           6           7           8           9          10
 ........................................................................................................................
   1    9.997       8.957       7.895       6.820       5.748       4.690       3.614       2.482       1.275      3.7809E-03
   2    9.997       8.918       7.812       6.689       5.591       4.551       3.517       2.424       1.249      3.7033E-03
   3    9.997       8.848       7.657       6.436       5.274       4.281       3.337       2.323       1.204      3.5718E-03
   4    9.997       8.774       7.479       6.120       4.849       3.943       3.131       2.216       1.160      3.4405E-03
   5    9.997       8.739       7.389       5.933       4.562       3.742       3.026       2.169       1.143      3.3887E-03
   6    9.997       8.784       7.499       6.147       4.880       3.973       3.157       2.235       1.170      3.4702E-03
   7    9.997       8.871       7.701       6.496       5.341       4.348       3.394       2.364       1.226      3.6362E-03
   8    9.997       8.957       7.888       6.793       5.708       4.666       3.614       2.494       1.286      3.8124E-03
   9    9.998       9.020       8.017       6.988       5.939       4.875       3.769       2.591       1.331      3.9483E-03
  10    9.998       9.051       8.081       7.081       6.048       4.975       3.846       2.641       1.356      4.0203E-03
1
              HEAD IN LAYER   4 AT END OF TIME STEP  17 IN STRESS PERIOD    5
  ---------------------------------------------------------------------------

            1           2           3           4           5           6           7           8           9          10
 ........................................................................................................................
   1    9.997       8.955       7.893       6.817       5.745       4.687       3.611       2.479       1.273      3.8044E-03
   2    9.997       8.916       7.810       6.687       5.588       4.548       3.514       2.422       1.247      3.7263E-03
   3    9.997       8.847       7.656       6.436       5.275       4.281       3.335       2.321       1.203      3.5942E-03
   4    9.997       8.773       7.480       6.124       4.860       3.948       3.131       2.215       1.159      3.4625E-03
   5    9.997       8.739       7.391       5.943       4.586       3.753       3.028       2.168       1.141      3.4108E-03
   6    9.997       8.783       7.500       6.151       4.890       3.978       3.157       2.233       1.169      3.4925E-03
   7    9.997       8.870       7.700       6.496       5.343       4.347       3.392       2.362       1.224      3.6592E-03
   8    9.997       8.956       7.886       6.791       5.706       4.664       3.611       2.492       1.284      3.8364E-03
   9    9.998       9.018       8.015       6.985       5.936       4.872       3.766       2.588       1.329      3.9731E-03
  10    9.998       9.050       8.079       7.078       6.045       4.972       3.843       2.638       1.354      4.0454E-03

 HEAD WILL BE SAVED ON UNIT   51 AT END OF TIME STEP   17, STRESS PERIOD    5

 DRAWDOWN WILL BE SAVED ON UNIT   52 AT END OF TIME STEP   17, STRESS PERIOD    5
1
  VOLUMETRIC BUDGET FOR ENTIRE MODEL AT END OF TIME STEP   17, STRESS PERIOD   5
  ------------------------------------------------------------------------------

     CUMULATIVE VOLUMES      L**3       RATES FOR THIS TIME STEP      L**3/T
     ------------------                 ------------------------

           IN:                                      IN:
           ---                                      ---
             STORAGE =      527597.8750               STORAGE =         242.6136
       CONSTANT HEAD =           0.0000         CONSTANT HEAD =           0.0000
               WELLS =           0.0000                 WELLS =           0.0000
     HEAD DEP BOUNDS =       92371.6250       HEAD DEP BOUNDS =         655.9414

            TOTAL IN =      619969.5000              TOTAL IN =         898.5550

          OUT:                                     OUT:
          ----                                     ----
             STORAGE =        5816.6040               STORAGE =         272.6472
       CONSTANT HEAD =           0.0000         CONSTANT HEAD =           0.0000
               WELLS =      100000.0000                 WELLS =           0.0000
     HEAD DEP BOUNDS =      514154.7188       HEAD DEP BOUNDS =         625.9013

           TOTAL OUT =      619971.3125             TOTAL OUT =         898.5485

            IN - OUT =          -1.8125              IN - OUT =       6.5308E-03

 PERCENT DISCREPANCY =          -0.00     PERCENT DISCREPANCY =           0.00






         TIME SUMMARY AT END OF TIME STEP   17 IN STRESS PERIOD    5
                    SECONDS     MINUTES      HOURS       DAYS        YEARS
                    -----------------------------------------------------------
   TIME STEP LENGTH  86400.      1440.0      24.000      1.0000     2.73785E-03
 STRESS PERIOD TIME 1.46880E+06  24480.      408.00      17.000     4.65435E-02
         TOTAL TIME 2.74752E+07 4.57920E+05  7632.0      318.00     0.87064    
1
 
 SOLVING FOR HEAD 

 OUTPUT CONTROL FOR STRESS PERIOD    5   TIME STEP   18
    SAVE HEAD FOR ALL LAYERS
    SAVE DRAWDOWN FOR ALL LAYERS
    SAVE BUDGET
    PRINT HEAD FOR ALL LAYERS
    PRINT BUDGET
 UBDSV1 SAVING "         STORAGE" ON UNIT  53 AT TIME STEP 18, STRESS PERIOD   5
 UBDSV2 SAVING "   CONSTANT HEAD" ON UNIT  53 AT TIME STEP 18, STRESS PERIOD   5
 UBDSV1 SAVING "FLOW RIGHT FACE " ON UNIT  53 AT TIME STEP 18, STRESS PERIOD   5
 UBDSV1 SAVING "FLOW FRONT FACE " ON UNIT  53 AT TIME STEP 18, STRESS PERIOD   5
 UBDSV1 SAVING "FLOW LOWER FACE " ON UNIT  53 AT TIME STEP 18, STRESS PERIOD   5
1
              HEAD IN LAYER   1 AT END OF TIME STEP  18 IN STRESS PERIOD    5
  ---------------------------------------------------------------------------

            1           2           3           4           5           6           7           8           9          10
 ........................................................................................................................
   1    9.997       8.961       7.901       6.827       5.756       4.698       3.622       2.489       1.280      1.7714E-03
   2    9.997       8.922       7.817       6.695       5.596       4.558       3.524       2.431       1.254      1.7327E-03
   3    9.997       8.852       7.661       6.438       5.273       4.284       3.342       2.329       1.209      1.6675E-03
   4    9.997       8.777       7.481       6.112       4.828       3.934       3.132       2.221       1.164      1.6024E-03
   5    9.997       8.742       7.387       5.913       4.512       3.719       3.023       2.173       1.147      1.5764E-03
   6    9.997       8.787       7.500       6.139       4.859       3.964       3.158       2.240       1.174      1.6168E-03
   7    9.997       8.875       7.705       6.498       5.340       4.350       3.399       2.370       1.231      1.6992E-03
   8    9.997       8.961       7.893       6.799       5.714       4.673       3.621       2.501       1.291      1.7869E-03
   9    9.998       9.023       8.022       6.994       5.947       4.883       3.776       2.598       1.337      1.8547E-03
  10    9.998       9.055       8.087       7.088       6.056       4.984       3.854       2.648       1.361      1.8907E-03
1
              HEAD IN LAYER   2 AT END OF TIME STEP  18 IN STRESS PERIOD    5
  ---------------------------------------------------------------------------

            1           2           3           4           5           6           7           8           9          10
 ........................................................................................................................
   1    9.997       8.957       7.895       6.820       5.748       4.690       3.615       2.483       1.276      3.5059E-03
   2    9.997       8.918       7.812       6.690       5.591       4.551       3.517       2.425       1.250      3.4335E-03
   3    9.997       8.849       7.658       6.438       5.276       4.283       3.337       2.324       1.205      3.3111E-03
   4    9.997       8.775       7.482       6.124       4.854       3.946       3.132       2.217       1.161      3.1890E-03
   5    9.997       8.741       7.392       5.939       4.568       3.745       3.028       2.170       1.143      3.1408E-03
   6    9.997       8.785       7.502       6.151       4.885       3.976       3.158       2.236       1.171      3.2166E-03
   7    9.997       8.872       7.702       6.498       5.344       4.349       3.394       2.365       1.227      3.3712E-03
   8    9.997       8.958       7.888       6.793       5.709       4.667       3.615       2.495       1.287      3.5354E-03
   9    9.998       9.020       8.017       6.987       5.939       4.875       3.769       2.592       1.333      3.6621E-03
  10    9.998       9.051       8.081       7.080       6.047       4.975       3.846       2.642       1.357      3.7292E-03
1
              HEAD IN LAYER   3 AT END OF TIME STEP  18 IN STRESS PERIOD    5
  ---------------------------------------------------------------------------

            1           2           3           4           5           6           7           8           9          10
 ........................................................................................................................
   1    9.997       8.954       7.891       6.814       5.742       4.683       3.608       2.477       1.272      3.7723E-03
   2    9.997       8.916       7.808       6.686       5.587       4.546       3.511       2.419       1.246      3.6949E-03
   3    9.997       8.847       7.656       6.438       5.279       4.282       3.334       2.319       1.202      3.5641E-03
   4    9.997       8.774       7.483       6.133       4.874       3.956       3.132       2.214       1.158      3.4339E-03
   5    9.997       8.741       7.396       5.959       4.612       3.767       3.032       2.168       1.141      3.3829E-03
   6    9.997       8.784       7.503       6.161       4.905       3.986       3.158       2.233       1.168      3.4637E-03
   7    9.997       8.870       7.700       6.498       5.347       4.349       3.391       2.360       1.224      3.6288E-03
   8    9.997       8.955       7.884       6.790       5.705       4.662       3.609       2.490       1.283      3.8045E-03
   9    9.998       9.017       8.013       6.982       5.933       4.869       3.763       2.586       1.329      3.9402E-03
  10    9.998       9.049       8.077       7.075       6.041       4.969       3.839       2.636       1.353      4.0122E-03
1
              HEAD IN LAYER   4 AT END OF TIME STEP  18 IN STRESS PERIOD    5
  ---------------------------------------------------------------------------

            1           2           3           4           5           6           7           8           9          10
 ........................................................................................................................
   1    9.997       8.953       7.889       6.812       5.739       4.680       3.605       2.474       1.270      3.7958E-03
   2    9.997       8.915       7.807       6.684       5.585       4.544       3.508       2.417       1.244      3.7180E-03
   3    9.997       8.846       7.655       6.438       5.280       4.282       3.332       2.317       1.200      3.5865E-03
   4    9.997       8.773       7.484       6.138       4.884       3.961       3.133       2.212       1.156      3.4560E-03
   5    9.997       8.740       7.399       5.969       4.634       3.778       3.034       2.167       1.139      3.4050E-03
   6    9.997       8.784       7.504       6.165       4.915       3.991       3.159       2.231       1.166      3.4861E-03
   7    9.997       8.869       7.699       6.498       5.348       4.349       3.389       2.358       1.222      3.6519E-03
   8    9.997       8.954       7.883       6.788       5.703       4.659       3.606       2.487       1.281      3.8284E-03
   9    9.998       9.016       8.011       6.980       5.930       4.865       3.759       2.583       1.327      3.9649E-03
  10    9.998       9.048       8.075       7.072       6.038       4.965       3.836       2.633       1.351      4.0373E-03

 HEAD WILL BE SAVED ON UNIT   51 AT END OF TIME STEP   18, STRESS PERIOD    5

 DRAWDOWN WILL BE SAVED ON UNIT   52 AT END OF TIME STEP   18, STRESS PERIOD    5
1
  VOLUMETRIC BUDGET FOR ENTIRE MODEL AT END OF TIME STEP   18, STRESS PERIOD   5
  ------------------------------------------------------------------------------

     CUMULATIVE VOLUMES      L**3       RATES FOR THIS TIME STEP      L**3/T
     ------------------                 ------------------------

           IN:                                      IN:
           ---                                      ---
             STORAGE =      527832.8125               STORAGE =         234.9499
       CONSTANT HEAD =           0.0000         CONSTANT HEAD =           0.0000
               WELLS =           0.0000                 WELLS =           0.0000
     HEAD DEP BOUNDS =       93028.2422       HEAD DEP BOUNDS =         656.6167

            TOTAL IN =      620861.0625              TOTAL IN =         891.5666

          OUT:                                     OUT:
          ----                                     ----
             STORAGE =        6083.5771               STORAGE =         266.9733
       CONSTANT HEAD =           0.0000         CONSTANT HEAD =           0.0000
               WELLS =      100000.0000                 WELLS =           0.0000
     HEAD DEP BOUNDS =      514779.3125       HEAD DEP BOUNDS =         624.6039

           TOTAL OUT =      620862.8750             TOTAL OUT =         891.5773

            IN - OUT =          -1.8125              IN - OUT =      -1.0681E-02

 PERCENT DISCREPANCY =          -0.00     PERCENT DISCREPANCY =          -0.00






         TIME SUMMARY AT END OF TIME STEP   18 IN STRESS PERIOD    5
                    SECONDS     MINUTES      HOURS       DAYS        YEARS
                    -----------------------------------------------------------
   TIME STEP LENGTH  86400.      1440.0      24.000      1.0000     2.73785E-03
 STRESS PERIOD TIME 1.55520E+06  25920.      432.00      18.000     4.92813E-02
         TOTAL TIME 2.75616E+07 4.59360E+05  7656.0      319.00     0.87337    
1
 
 SOLVING FOR HEAD 

 OUTPUT CONTROL FOR STRESS PERIOD    5   TIME STEP   19
    SAVE HEAD FOR ALL LAYERS
    SAVE DRAWDOWN FOR ALL LAYERS
    SAVE BUDGET
    PRINT HEAD FOR ALL LAYERS
    PRINT BUDGET
 UBDSV1 SAVING "         STORAGE" ON UNIT  53 AT TIME STEP 19, STRESS PERIOD   5
 UBDSV2 SAVING "   CONSTANT HEAD" ON UNIT  53 AT TIME STEP 19, STRESS PERIOD   5
 UBDSV1 SAVING "FLOW RIGHT FACE " ON UNIT  53 AT TIME STEP 19, STRESS PERIOD   5
 UBDSV1 SAVING "FLOW FRONT FACE " ON UNIT  53 AT TIME STEP 19, STRESS PERIOD   5
 UBDSV1 SAVING "FLOW LOWER FACE " ON UNIT  53 AT TIME STEP 19, STRESS PERIOD   5
1
              HEAD IN LAYER   1 AT END OF TIME STEP  19 IN STRESS PERIOD    5
  ---------------------------------------------------------------------------

            1           2           3           4           5           6           7           8           9          10
 ........................................................................................................................
   1    9.997       8.958       7.897       6.821       5.749       4.691       3.616       2.484       1.277      1.7670E-03
   2    9.997       8.920       7.814       6.691       5.592       4.553       3.518       2.426       1.251      1.7285E-03
   3    9.997       8.851       7.660       6.440       5.277       4.284       3.339       2.325       1.206      1.6635E-03
   4    9.997       8.777       7.484       6.125       4.854       3.947       3.133       2.218       1.162      1.5990E-03
   5    9.997       8.743       7.394       5.940       4.566       3.746       3.029       2.171       1.145      1.5735E-03
   6    9.997       8.787       7.504       6.153       4.885       3.977       3.159       2.237       1.172      1.6135E-03
   7    9.997       8.874       7.704       6.499       5.345       4.350       3.395       2.366       1.228      1.6955E-03
   8    9.997       8.959       7.889       6.795       5.710       4.668       3.616       2.496       1.288      1.7830E-03
   9    9.998       9.021       8.018       6.989       5.940       4.876       3.770       2.593       1.334      1.8506E-03
  10    9.998       9.052       8.082       7.082       6.049       4.977       3.847       2.643       1.358      1.8868E-03
1
              HEAD IN LAYER   2 AT END OF TIME STEP  19 IN STRESS PERIOD    5
  ---------------------------------------------------------------------------

            1           2           3           4           5           6           7           8           9          10
 ........................................................................................................................
   1    9.997       8.955       7.891       6.814       5.742       4.683       3.608       2.477       1.273      3.4979E-03
   2    9.997       8.916       7.809       6.686       5.587       4.546       3.511       2.420       1.247      3.4258E-03
   3    9.997       8.848       7.657       6.440       5.281       4.283       3.334       2.320       1.203      3.3039E-03
   4    9.997       8.775       7.486       6.138       4.879       3.959       3.134       2.214       1.159      3.1828E-03
   5    9.997       8.742       7.400       5.965       4.618       3.771       3.034       2.169       1.142      3.1355E-03
   6    9.997       8.786       7.506       6.165       4.910       3.989       3.160       2.233       1.169      3.2106E-03
   7    9.997       8.871       7.701       6.500       5.349       4.350       3.391       2.361       1.225      3.3643E-03
   8    9.997       8.956       7.885       6.790       5.706       4.662       3.609       2.490       1.284      3.5280E-03
   9    9.998       9.018       8.013       6.982       5.933       4.868       3.763       2.587       1.330      3.6546E-03
  10    9.998       9.049       8.077       7.075       6.041       4.968       3.840       2.637       1.354      3.7216E-03
1
              HEAD IN LAYER   3 AT END OF TIME STEP  19 IN STRESS PERIOD    5
  ---------------------------------------------------------------------------

            1           2           3           4           5           6           7           8           9          10
 ........................................................................................................................
   1    9.997       8.952       7.887       6.809       5.736       4.677       3.602       2.472       1.269      3.7639E-03
   2    9.997       8.914       7.805       6.682       5.584       4.541       3.505       2.415       1.243      3.6867E-03
   3    9.997       8.846       7.656       6.440       5.284       4.283       3.331       2.315       1.199      3.5566E-03
   4    9.997       8.774       7.487       6.147       4.899       3.969       3.134       2.211       1.156      3.4275E-03
   5    9.997       8.742       7.404       5.984       4.659       3.792       3.038       2.167       1.139      3.3774E-03
   6    9.997       8.785       7.507       6.174       4.930       3.999       3.160       2.230       1.166      3.4575E-03
   7    9.997       8.869       7.699       6.500       5.352       4.350       3.388       2.357       1.221      3.6216E-03
   8    9.997       8.954       7.881       6.786       5.702       4.657       3.604       2.485       1.280      3.7967E-03
   9    9.998       9.015       8.009       6.977       5.927       4.862       3.756       2.581       1.326      3.9322E-03
  10    9.998       9.047       8.073       7.069       6.034       4.962       3.833       2.631       1.350      4.0041E-03
1
              HEAD IN LAYER   4 AT END OF TIME STEP  19 IN STRESS PERIOD    5
  ---------------------------------------------------------------------------

            1           2           3           4           5           6           7           8           9          10
 ........................................................................................................................
   1    9.997       8.951       7.885       6.806       5.733       4.673       3.598       2.469       1.267      3.7873E-03
   2    9.997       8.913       7.803       6.680       5.582       4.539       3.503       2.412       1.241      3.7098E-03
   3    9.997       8.845       7.655       6.441       5.285       4.283       3.329       2.313       1.198      3.5791E-03
   4    9.997       8.774       7.488       6.152       4.908       3.974       3.134       2.210       1.154      3.4496E-03
   5    9.997       8.742       7.406       5.993       4.679       3.803       3.040       2.166       1.137      3.3996E-03
   6    9.997       8.784       7.508       6.179       4.939       4.004       3.161       2.229       1.164      3.4799E-03
   7    9.997       8.868       7.699       6.501       5.354       4.350       3.386       2.354       1.220      3.6446E-03
   8    9.997       8.953       7.880       6.785       5.700       4.655       3.601       2.483       1.278      3.8206E-03
   9    9.998       9.014       8.007       6.975       5.924       4.859       3.753       2.579       1.324      3.9569E-03
  10    9.998       9.046       8.071       7.067       6.031       4.958       3.830       2.628       1.348      4.0292E-03

 HEAD WILL BE SAVED ON UNIT   51 AT END OF TIME STEP   19, STRESS PERIOD    5

 DRAWDOWN WILL BE SAVED ON UNIT   52 AT END OF TIME STEP   19, STRESS PERIOD    5
1
  VOLUMETRIC BUDGET FOR ENTIRE MODEL AT END OF TIME STEP   19, STRESS PERIOD   5
  ------------------------------------------------------------------------------

     CUMULATIVE VOLUMES      L**3       RATES FOR THIS TIME STEP      L**3/T
     ------------------                 ------------------------

           IN:                                      IN:
           ---                                      ---
             STORAGE =      528060.5625               STORAGE =         227.7447
       CONSTANT HEAD =           0.0000         CONSTANT HEAD =           0.0000
               WELLS =           0.0000                 WELLS =           0.0000
     HEAD DEP BOUNDS =       93685.4922       HEAD DEP BOUNDS =         657.2471

            TOTAL IN =      621746.0625              TOTAL IN =         884.9918

          OUT:                                     OUT:
          ----                                     ----
             STORAGE =        6345.2461               STORAGE =         261.6688
       CONSTANT HEAD =           0.0000         CONSTANT HEAD =           0.0000
               WELLS =      100000.0000                 WELLS =           0.0000
     HEAD DEP BOUNDS =      515402.6562       HEAD DEP BOUNDS =         623.3329

           TOTAL OUT =      621747.8750             TOTAL OUT =         885.0018

            IN - OUT =          -1.8125              IN - OUT =      -9.9487E-03

 PERCENT DISCREPANCY =          -0.00     PERCENT DISCREPANCY =          -0.00






         TIME SUMMARY AT END OF TIME STEP   19 IN STRESS PERIOD    5
                    SECONDS     MINUTES      HOURS       DAYS        YEARS
                    -----------------------------------------------------------
   TIME STEP LENGTH  86400.      1440.0      24.000      1.0000     2.73785E-03
 STRESS PERIOD TIME 1.64160E+06  27360.      456.00      19.000     5.20192E-02
         TOTAL TIME 2.76480E+07 4.60800E+05  7680.0      320.00     0.87611    
1
 
 SOLVING FOR HEAD 

 OUTPUT CONTROL FOR STRESS PERIOD    5   TIME STEP   20
    SAVE HEAD FOR ALL LAYERS
    SAVE DRAWDOWN FOR ALL LAYERS
    SAVE BUDGET
    PRINT HEAD FOR ALL LAYERS
    PRINT BUDGET
 UBDSV1 SAVING "         STORAGE" ON UNIT  53 AT TIME STEP 20, STRESS PERIOD   5
 UBDSV2 SAVING "   CONSTANT HEAD" ON UNIT  53 AT TIME STEP 20, STRESS PERIOD   5
 UBDSV1 SAVING "FLOW RIGHT FACE " ON UNIT  53 AT TIME STEP 20, STRESS PERIOD   5
 UBDSV1 SAVING "FLOW FRONT FACE " ON UNIT  53 AT TIME STEP 20, STRESS PERIOD   5
 UBDSV1 SAVING "FLOW LOWER FACE " ON UNIT  53 AT TIME STEP 20, STRESS PERIOD   5
1
              HEAD IN LAYER   1 AT END OF TIME STEP  20 IN STRESS PERIOD    5
  ---------------------------------------------------------------------------

            1           2           3           4           5           6           7           8           9          10
 ........................................................................................................................
   1    9.997       8.956       7.893       6.816       5.743       4.685       3.609       2.479       1.274      1.7629E-03
   2    9.997       8.918       7.810       6.688       5.589       4.548       3.512       2.421       1.248      1.7245E-03
   3    9.997       8.850       7.659       6.442       5.282       4.285       3.335       2.321       1.204      1.6597E-03
   4    9.997       8.777       7.487       6.139       4.879       3.960       3.135       2.215       1.160      1.5958E-03
   5    9.997       8.744       7.402       5.965       4.617       3.771       3.035       2.170       1.143      1.5707E-03
   6    9.997       8.787       7.507       6.166       4.910       3.990       3.161       2.234       1.170      1.6104E-03
   7    9.997       8.873       7.703       6.501       5.350       4.351       3.392       2.362       1.226      1.6918E-03
   8    9.997       8.957       7.886       6.792       5.707       4.663       3.611       2.492       1.285      1.7790E-03
   9    9.998       9.019       8.014       6.984       5.934       4.870       3.764       2.588       1.331      1.8468E-03
  10    9.998       9.050       8.078       7.076       6.042       4.970       3.841       2.638       1.356      1.8826E-03
1
              HEAD IN LAYER   2 AT END OF TIME STEP  20 IN STRESS PERIOD    5
  ---------------------------------------------------------------------------

            1           2           3           4           5           6           7           8           9          10
 ........................................................................................................................
   1    9.997       8.952       7.887       6.809       5.736       4.677       3.602       2.472       1.270      3.4900E-03
   2    9.997       8.914       7.806       6.683       5.584       4.542       3.506       2.415       1.244      3.4181E-03
   3    9.997       8.847       7.657       6.442       5.286       4.284       3.331       2.316       1.200      3.2970E-03
   4    9.997       8.776       7.489       6.151       4.903       3.972       3.135       2.212       1.157      3.1769E-03
   5    9.997       8.744       7.408       5.989       4.664       3.796       3.040       2.167       1.140      3.1304E-03
   6    9.997       8.786       7.509       6.178       4.934       4.002       3.162       2.231       1.167      3.2049E-03
   7    9.997       8.870       7.701       6.502       5.354       4.351       3.389       2.357       1.222      3.3576E-03
   8    9.997       8.954       7.882       6.787       5.703       4.658       3.604       2.486       1.281      3.5208E-03
   9    9.998       9.016       8.009       6.977       5.927       4.862       3.757       2.582       1.327      3.6471E-03
  10    9.998       9.047       8.073       7.069       6.034       4.961       3.833       2.632       1.351      3.7141E-03
1
              HEAD IN LAYER   3 AT END OF TIME STEP  20 IN STRESS PERIOD    5
  ---------------------------------------------------------------------------

            1           2           3           4           5           6           7           8           9          10
 ........................................................................................................................
   1    9.997       8.950       7.883       6.804       5.730       4.670       3.595       2.467       1.266      3.7555E-03
   2    9.997       8.912       7.802       6.679       5.580       4.537       3.500       2.410       1.240      3.6786E-03
   3    9.997       8.845       7.655       6.443       5.289       4.284       3.328       2.311       1.197      3.5492E-03
   4    9.997       8.775       7.491       6.161       4.922       3.981       3.136       2.209       1.154      3.4214E-03
   5    9.997       8.743       7.412       6.007       4.702       3.816       3.044       2.166       1.137      3.3721E-03
   6    9.997       8.785       7.511       6.188       4.953       4.012       3.163       2.228       1.164      3.4515E-03
   7    9.997       8.868       7.699       6.503       5.357       4.351       3.385       2.353       1.219      3.6146E-03
   8    9.997       8.952       7.879       6.784       5.699       4.653       3.599       2.481       1.278      3.7890E-03
   9    9.998       9.013       8.005       6.972       5.922       4.856       3.750       2.576       1.323      3.9243E-03
  10    9.998       9.045       8.069       7.064       6.028       4.955       3.827       2.626       1.348      3.9961E-03
1
              HEAD IN LAYER   4 AT END OF TIME STEP  20 IN STRESS PERIOD    5
  ---------------------------------------------------------------------------

            1           2           3           4           5           6           7           8           9          10
 ........................................................................................................................
   1    9.997       8.949       7.881       6.801       5.727       4.667       3.592       2.464       1.265      3.7789E-03
   2    9.997       8.911       7.801       6.677       5.579       4.535       3.497       2.407       1.239      3.7017E-03
   3    9.997       8.844       7.654       6.443       5.291       4.284       3.326       2.309       1.195      3.5717E-03
   4    9.997       8.774       7.492       6.165       4.931       3.986       3.137       2.208       1.152      3.4436E-03
   5    9.997       8.743       7.414       6.016       4.720       3.826       3.046       2.165       1.136      3.3944E-03
   6    9.997       8.785       7.512       6.193       4.962       4.017       3.163       2.227       1.162      3.4740E-03
   7    9.997       8.867       7.698       6.503       5.359       4.352       3.384       2.351       1.217      3.6376E-03
   8    9.997       8.951       7.877       6.782       5.697       4.651       3.596       2.478       1.276      3.8129E-03
   9    9.998       9.012       8.003       6.970       5.919       4.853       3.747       2.574       1.321      3.9489E-03
  10    9.998       9.043       8.067       7.061       6.025       4.952       3.824       2.623       1.346      4.0212E-03

 HEAD WILL BE SAVED ON UNIT   51 AT END OF TIME STEP   20, STRESS PERIOD    5

 DRAWDOWN WILL BE SAVED ON UNIT   52 AT END OF TIME STEP   20, STRESS PERIOD    5
1
  VOLUMETRIC BUDGET FOR ENTIRE MODEL AT END OF TIME STEP   20, STRESS PERIOD   5
  ------------------------------------------------------------------------------

     CUMULATIVE VOLUMES      L**3       RATES FOR THIS TIME STEP      L**3/T
     ------------------                 ------------------------

           IN:                                      IN:
           ---                                      ---
             STORAGE =      528281.4375               STORAGE =         220.8658
       CONSTANT HEAD =           0.0000         CONSTANT HEAD =           0.0000
               WELLS =           0.0000                 WELLS =           0.0000
     HEAD DEP BOUNDS =       94343.3203       HEAD DEP BOUNDS =         657.8271

            TOTAL IN =      622624.7500              TOTAL IN =         878.6929

          OUT:                                     OUT:
          ----                                     ----
             STORAGE =        6601.8477               STORAGE =         256.6014
       CONSTANT HEAD =           0.0000         CONSTANT HEAD =           0.0000
               WELLS =      100000.0000                 WELLS =           0.0000
     HEAD DEP BOUNDS =      516024.7500       HEAD DEP BOUNDS =         622.0917

           TOTAL OUT =      622626.6250             TOTAL OUT =         878.6931

            IN - OUT =          -1.8750              IN - OUT =      -2.4414E-04

 PERCENT DISCREPANCY =          -0.00     PERCENT DISCREPANCY =          -0.00






         TIME SUMMARY AT END OF TIME STEP   20 IN STRESS PERIOD    5
                    SECONDS     MINUTES      HOURS       DAYS        YEARS
                    -----------------------------------------------------------
   TIME STEP LENGTH  86400.      1440.0      24.000      1.0000     2.73785E-03
 STRESS PERIOD TIME 1.72800E+06  28800.      480.00      20.000     5.47570E-02
         TOTAL TIME 2.77344E+07 4.62240E+05  7704.0      321.00     0.87885    
1
 
 SOLVING FOR HEAD 

 OUTPUT CONTROL FOR STRESS PERIOD    5   TIME STEP   21
    SAVE HEAD FOR ALL LAYERS
    SAVE DRAWDOWN FOR ALL LAYERS
    SAVE BUDGET
    PRINT HEAD FOR ALL LAYERS
    PRINT BUDGET
 UBDSV1 SAVING "         STORAGE" ON UNIT  53 AT TIME STEP 21, STRESS PERIOD   5
 UBDSV2 SAVING "   CONSTANT HEAD" ON UNIT  53 AT TIME STEP 21, STRESS PERIOD   5
 UBDSV1 SAVING "FLOW RIGHT FACE " ON UNIT  53 AT TIME STEP 21, STRESS PERIOD   5
 UBDSV1 SAVING "FLOW FRONT FACE " ON UNIT  53 AT TIME STEP 21, STRESS PERIOD   5
 UBDSV1 SAVING "FLOW LOWER FACE " ON UNIT  53 AT TIME STEP 21, STRESS PERIOD   5
1
              HEAD IN LAYER   1 AT END OF TIME STEP  21 IN STRESS PERIOD    5
  ---------------------------------------------------------------------------

            1           2           3           4           5           6           7           8           9          10
 ........................................................................................................................
   1    9.997       8.954       7.889       6.810       5.737       4.678       3.603       2.473       1.271      1.7588E-03
   2    9.997       8.916       7.807       6.684       5.586       4.543       3.507       2.416       1.245      1.7204E-03
   3    9.997       8.849       7.659       6.444       5.287       4.286       3.332       2.317       1.201      1.6560E-03
   4    9.997       8.777       7.491       6.152       4.904       3.972       3.136       2.213       1.158      1.5926E-03
   5    9.997       8.746       7.409       5.990       4.663       3.796       3.041       2.168       1.141      1.5680E-03
   6    9.997       8.788       7.511       6.180       4.935       4.003       3.163       2.232       1.168      1.6074E-03
   7    9.997       8.872       7.702       6.504       5.355       4.353       3.390       2.358       1.223      1.6883E-03
   8    9.997       8.956       7.883       6.789       5.704       4.659       3.605       2.487       1.283      1.7750E-03
   9    9.998       9.017       8.011       6.979       5.929       4.863       3.758       2.583       1.328      1.8427E-03
  10    9.998       9.048       8.074       7.071       6.036       4.963       3.835       2.633       1.353      1.8786E-03
1
              HEAD IN LAYER   2 AT END OF TIME STEP  21 IN STRESS PERIOD    5
  ---------------------------------------------------------------------------

            1           2           3           4           5           6           7           8           9          10
 ........................................................................................................................
   1    9.997       8.950       7.883       6.804       5.730       4.670       3.595       2.467       1.267      3.4822E-03
   2    9.997       8.913       7.803       6.680       5.581       4.537       3.500       2.410       1.241      3.4106E-03
   3    9.997       8.846       7.656       6.445       5.291       4.286       3.329       2.312       1.198      3.2902E-03
   4    9.997       8.776       7.494       6.165       4.926       3.984       3.138       2.210       1.155      3.1713E-03
   5    9.997       8.745       7.415       6.013       4.707       3.819       3.046       2.166       1.138      3.1255E-03
   6    9.997       8.787       7.514       6.192       4.958       4.015       3.164       2.229       1.165      3.1994E-03
   7    9.997       8.869       7.700       6.505       5.360       4.353       3.386       2.354       1.220      3.3511E-03
   8    9.997       8.952       7.879       6.784       5.700       4.653       3.599       2.481       1.279      3.5136E-03
   9    9.998       9.013       8.005       6.972       5.921       4.856       3.751       2.577       1.324      3.6397E-03
  10    9.998       9.045       8.068       7.063       6.028       4.955       3.827       2.627       1.349      3.7067E-03
1
              HEAD IN LAYER   3 AT END OF TIME STEP  21 IN STRESS PERIOD    5
  ---------------------------------------------------------------------------

            1           2           3           4           5           6           7           8           9          10
 ........................................................................................................................
   1    9.997       8.948       7.879       6.799       5.724       4.664       3.589       2.462       1.264      3.7472E-03
   2    9.997       8.910       7.799       6.676       5.577       4.533       3.495       2.405       1.238      3.6707E-03
   3    9.997       8.844       7.655       6.446       5.295       4.286       3.325       2.308       1.194      3.5421E-03
   4    9.997       8.775       7.495       6.174       4.944       3.994       3.138       2.207       1.152      3.4155E-03
   5    9.997       8.745       7.420       6.030       4.742       3.839       3.050       2.165       1.135      3.3671E-03
   6    9.997       8.786       7.515       6.201       4.976       4.025       3.165       2.226       1.162      3.4458E-03
   7    9.997       8.868       7.699       6.506       5.363       4.353       3.383       2.350       1.217      3.6077E-03
   8    9.997       8.950       7.876       6.781       5.696       4.649       3.594       2.476       1.275      3.7814E-03
   9    9.998       9.011       8.002       6.967       5.916       4.850       3.745       2.572       1.321      3.9164E-03
  10    9.998       9.042       8.065       7.058       6.022       4.948       3.821       2.621       1.345      3.9882E-03
1
              HEAD IN LAYER   4 AT END OF TIME STEP  21 IN STRESS PERIOD    5
  ---------------------------------------------------------------------------

            1           2           3           4           5           6           7           8           9          10
 ........................................................................................................................
   1    9.997       8.947       7.877       6.796       5.721       4.661       3.586       2.459       1.262      3.7705E-03
   2    9.997       8.909       7.798       6.674       5.576       4.530       3.492       2.403       1.236      3.6937E-03
   3    9.997       8.844       7.654       6.446       5.296       4.286       3.324       2.306       1.193      3.5646E-03
   4    9.997       8.775       7.496       6.179       4.953       3.999       3.139       2.206       1.150      3.4378E-03
   5    9.997       8.745       7.422       6.039       4.759       3.848       3.053       2.164       1.134      3.3895E-03
   6    9.997       8.785       7.516       6.206       4.985       4.030       3.165       2.225       1.160      3.4683E-03
   7    9.997       8.867       7.698       6.506       5.365       4.353       3.382       2.348       1.215      3.6308E-03
   8    9.997       8.949       7.874       6.779       5.695       4.647       3.591       2.474       1.273      3.8054E-03
   9    9.998       9.010       8.000       6.965       5.913       4.847       3.741       2.569       1.319      3.9411E-03
  10    9.998       9.041       8.063       7.056       6.018       4.945       3.817       2.619       1.343      4.0132E-03

 HEAD WILL BE SAVED ON UNIT   51 AT END OF TIME STEP   21, STRESS PERIOD    5

 DRAWDOWN WILL BE SAVED ON UNIT   52 AT END OF TIME STEP   21, STRESS PERIOD    5
1
  VOLUMETRIC BUDGET FOR ENTIRE MODEL AT END OF TIME STEP   21, STRESS PERIOD   5
  ------------------------------------------------------------------------------

     CUMULATIVE VOLUMES      L**3       RATES FOR THIS TIME STEP      L**3/T
     ------------------                 ------------------------

           IN:                                      IN:
           ---                                      ---
             STORAGE =      528495.4375               STORAGE =         214.0280
       CONSTANT HEAD =           0.0000         CONSTANT HEAD =           0.0000
               WELLS =           0.0000                 WELLS =           0.0000
     HEAD DEP BOUNDS =       95001.6719       HEAD DEP BOUNDS =         658.3513

            TOTAL IN =      623497.1250              TOTAL IN =         872.3794

          OUT:                                     OUT:
          ----                                     ----
             STORAGE =        6853.3555               STORAGE =         251.5078
       CONSTANT HEAD =           0.0000         CONSTANT HEAD =           0.0000
               WELLS =      100000.0000                 WELLS =           0.0000
     HEAD DEP BOUNDS =      516645.6250       HEAD DEP BOUNDS =         620.8745

           TOTAL OUT =      623499.0000             TOTAL OUT =         872.3823

            IN - OUT =          -1.8750              IN - OUT =      -2.9297E-03

 PERCENT DISCREPANCY =          -0.00     PERCENT DISCREPANCY =          -0.00






         TIME SUMMARY AT END OF TIME STEP   21 IN STRESS PERIOD    5
                    SECONDS     MINUTES      HOURS       DAYS        YEARS
                    -----------------------------------------------------------
   TIME STEP LENGTH  86400.      1440.0      24.000      1.0000     2.73785E-03
 STRESS PERIOD TIME 1.81440E+06  30240.      504.00      21.000     5.74949E-02
         TOTAL TIME 2.78208E+07 4.63680E+05  7728.0      322.00     0.88159    
1
 
 SOLVING FOR HEAD 

 OUTPUT CONTROL FOR STRESS PERIOD    5   TIME STEP   22
    SAVE HEAD FOR ALL LAYERS
    SAVE DRAWDOWN FOR ALL LAYERS
    SAVE BUDGET
    PRINT HEAD FOR ALL LAYERS
    PRINT BUDGET
 UBDSV1 SAVING "         STORAGE" ON UNIT  53 AT TIME STEP 22, STRESS PERIOD   5
 UBDSV2 SAVING "   CONSTANT HEAD" ON UNIT  53 AT TIME STEP 22, STRESS PERIOD   5
 UBDSV1 SAVING "FLOW RIGHT FACE " ON UNIT  53 AT TIME STEP 22, STRESS PERIOD   5
 UBDSV1 SAVING "FLOW FRONT FACE " ON UNIT  53 AT TIME STEP 22, STRESS PERIOD   5
 UBDSV1 SAVING "FLOW LOWER FACE " ON UNIT  53 AT TIME STEP 22, STRESS PERIOD   5
1
              HEAD IN LAYER   1 AT END OF TIME STEP  22 IN STRESS PERIOD    5
  ---------------------------------------------------------------------------

            1           2           3           4           5           6           7           8           9          10
 ........................................................................................................................
   1    9.997       8.952       7.885       6.805       5.731       4.671       3.597       2.468       1.269      1.7545E-03
   2    9.997       8.914       7.804       6.681       5.582       4.539       3.502       2.412       1.243      1.7165E-03
   3    9.997       8.848       7.658       6.446       5.293       4.287       3.330       2.313       1.199      1.6524E-03
   4    9.997       8.778       7.495       6.166       4.927       3.985       3.139       2.211       1.156      1.5897E-03
   5    9.997       8.747       7.417       6.013       4.706       3.820       3.047       2.167       1.139      1.5654E-03
   6    9.997       8.788       7.515       6.193       4.958       4.016       3.165       2.230       1.166      1.6045E-03
   7    9.997       8.871       7.702       6.506       5.361       4.354       3.387       2.355       1.221      1.6849E-03
   8    9.997       8.954       7.881       6.786       5.701       4.655       3.600       2.483       1.280      1.7712E-03
   9    9.998       9.015       8.007       6.974       5.923       4.857       3.752       2.578       1.326      1.8387E-03
  10    9.998       9.046       8.070       7.065       6.029       4.956       3.828       2.628       1.350      1.8746E-03
1
              HEAD IN LAYER   2 AT END OF TIME STEP  22 IN STRESS PERIOD    5
  ---------------------------------------------------------------------------

            1           2           3           4           5           6           7           8           9          10
 ........................................................................................................................
   1    9.997       8.948       7.879       6.799       5.724       4.664       3.589       2.462       1.265      3.4745E-03
   2    9.997       8.911       7.800       6.677       5.578       4.533       3.495       2.406       1.239      3.4032E-03
   3    9.997       8.845       7.656       6.447       5.297       4.287       3.326       2.308       1.195      3.2835E-03
   4    9.997       8.777       7.498       6.178       4.949       3.997       3.140       2.208       1.153      3.1658E-03
   5    9.997       8.747       7.423       6.035       4.747       3.842       3.052       2.166       1.136      3.1209E-03
   6    9.997       8.787       7.518       6.205       4.980       4.028       3.166       2.227       1.163      3.1941E-03
   7    9.997       8.868       7.700       6.508       5.365       4.355       3.384       2.350       1.218      3.3448E-03
   8    9.997       8.951       7.876       6.781       5.697       4.649       3.594       2.477       1.276      3.5066E-03
   9    9.998       9.011       8.002       6.967       5.916       4.850       3.745       2.572       1.322      3.6324E-03
  10    9.998       9.043       8.064       7.058       6.021       4.948       3.821       2.622       1.346      3.6993E-03
1
              HEAD IN LAYER   3 AT END OF TIME STEP  22 IN STRESS PERIOD    5
  ---------------------------------------------------------------------------

            1           2           3           4           5           6           7           8           9          10
 ........................................................................................................................
   1    9.997       8.946       7.876       6.794       5.719       4.658       3.583       2.457       1.261      3.7389E-03
   2    9.997       8.909       7.797       6.673       5.575       4.529       3.490       2.401       1.235      3.6628E-03
   3    9.997       8.844       7.655       6.448       5.300       4.288       3.323       2.304       1.192      3.5351E-03
   4    9.997       8.776       7.500       6.187       4.966       4.007       3.141       2.205       1.150      3.4099E-03
   5    9.997       8.747       7.428       6.052       4.779       3.861       3.056       2.164       1.134      3.3624E-03
   6    9.997       8.786       7.520       6.215       4.997       4.037       3.168       2.224       1.160      3.4403E-03
   7    9.997       8.867       7.699       6.509       5.369       4.355       3.381       2.346       1.214      3.6010E-03
   8    9.997       8.949       7.873       6.778       5.694       4.645       3.589       2.472       1.273      3.7740E-03
   9    9.998       9.009       7.998       6.962       5.910       4.844       3.739       2.567       1.318      3.9086E-03
  10    9.998       9.040       8.060       7.053       6.015       4.941       3.814       2.617       1.342      3.9803E-03
1
              HEAD IN LAYER   4 AT END OF TIME STEP  22 IN STRESS PERIOD    5
  ---------------------------------------------------------------------------

            1           2           3           4           5           6           7           8           9          10
 ........................................................................................................................
   1    9.997       8.945       7.874       6.791       5.716       4.655       3.580       2.454       1.259      3.7623E-03
   2    9.997       8.908       7.795       6.671       5.573       4.526       3.487       2.398       1.233      3.6858E-03
   3    9.997       8.843       7.654       6.449       5.302       4.288       3.322       2.302       1.190      3.5577E-03
   4    9.997       8.776       7.501       6.192       4.974       4.011       3.142       2.204       1.148      3.4322E-03
   5    9.997       8.747       7.430       6.061       4.794       3.870       3.059       2.163       1.133      3.3849E-03
   6    9.997       8.786       7.521       6.219       5.006       4.042       3.168       2.223       1.159      3.4629E-03
   7    9.997       8.866       7.699       6.509       5.370       4.355       3.380       2.344       1.213      3.6241E-03
   8    9.997       8.948       7.872       6.777       5.692       4.643       3.587       2.470       1.271      3.7979E-03
   9    9.998       9.008       7.996       6.960       5.908       4.841       3.736       2.564       1.316      3.9333E-03
  10    9.998       9.039       8.059       7.050       6.012       4.938       3.811       2.614       1.340      4.0053E-03

 HEAD WILL BE SAVED ON UNIT   51 AT END OF TIME STEP   22, STRESS PERIOD    5

 DRAWDOWN WILL BE SAVED ON UNIT   52 AT END OF TIME STEP   22, STRESS PERIOD    5
1
  VOLUMETRIC BUDGET FOR ENTIRE MODEL AT END OF TIME STEP   22, STRESS PERIOD   5
  ------------------------------------------------------------------------------

     CUMULATIVE VOLUMES      L**3       RATES FOR THIS TIME STEP      L**3/T
     ------------------                 ------------------------

           IN:                                      IN:
           ---                                      ---
             STORAGE =      528702.6875               STORAGE =         207.2650
       CONSTANT HEAD =           0.0000         CONSTANT HEAD =           0.0000
               WELLS =           0.0000                 WELLS =           0.0000
     HEAD DEP BOUNDS =       95660.4844       HEAD DEP BOUNDS =         658.8143

            TOTAL IN =      624363.1875              TOTAL IN =         866.0792

          OUT:                                     OUT:
          ----                                     ----
             STORAGE =        7099.7754               STORAGE =         246.4200
       CONSTANT HEAD =           0.0000         CONSTANT HEAD =           0.0000
               WELLS =      100000.0000                 WELLS =           0.0000
     HEAD DEP BOUNDS =      517265.3125       HEAD DEP BOUNDS =         619.6867

           TOTAL OUT =      624365.0625             TOTAL OUT =         866.1067

            IN - OUT =          -1.8750              IN - OUT =      -2.7466E-02

 PERCENT DISCREPANCY =          -0.00     PERCENT DISCREPANCY =          -0.00






         TIME SUMMARY AT END OF TIME STEP   22 IN STRESS PERIOD    5
                    SECONDS     MINUTES      HOURS       DAYS        YEARS
                    -----------------------------------------------------------
   TIME STEP LENGTH  86400.      1440.0      24.000      1.0000     2.73785E-03
 STRESS PERIOD TIME 1.90080E+06  31680.      528.00      22.000     6.02327E-02
         TOTAL TIME 2.79072E+07 4.65120E+05  7752.0      323.00     0.88433    
1
 
 SOLVING FOR HEAD 

 OUTPUT CONTROL FOR STRESS PERIOD    5   TIME STEP   23
    SAVE HEAD FOR ALL LAYERS
    SAVE DRAWDOWN FOR ALL LAYERS
    SAVE BUDGET
    PRINT HEAD FOR ALL LAYERS
    PRINT BUDGET
 UBDSV1 SAVING "         STORAGE" ON UNIT  53 AT TIME STEP 23, STRESS PERIOD   5
 UBDSV2 SAVING "   CONSTANT HEAD" ON UNIT  53 AT TIME STEP 23, STRESS PERIOD   5
 UBDSV1 SAVING "FLOW RIGHT FACE " ON UNIT  53 AT TIME STEP 23, STRESS PERIOD   5
 UBDSV1 SAVING "FLOW FRONT FACE " ON UNIT  53 AT TIME STEP 23, STRESS PERIOD   5
 UBDSV1 SAVING "FLOW LOWER FACE " ON UNIT  53 AT TIME STEP 23, STRESS PERIOD   5
1
              HEAD IN LAYER   1 AT END OF TIME STEP  23 IN STRESS PERIOD    5
  ---------------------------------------------------------------------------

            1           2           3           4           5           6           7           8           9          10
 ........................................................................................................................
   1    9.997       8.950       7.881       6.800       5.726       4.665       3.590       2.463       1.266      1.7505E-03
   2    9.997       8.912       7.801       6.678       5.579       4.534       3.496       2.407       1.240      1.7126E-03
   3    9.997       8.847       7.658       6.449       5.298       4.288       3.327       2.309       1.196      1.6490E-03
   4    9.997       8.778       7.500       6.179       4.949       3.998       3.141       2.209       1.154      1.5868E-03
   5    9.997       8.749       7.425       6.036       4.746       3.843       3.053       2.167       1.137      1.5631E-03
   6    9.997       8.789       7.520       6.206       4.980       4.029       3.167       2.228       1.164      1.6017E-03
   7    9.997       8.870       7.702       6.509       5.366       4.356       3.385       2.351       1.219      1.6816E-03
   8    9.997       8.952       7.878       6.783       5.699       4.651       3.595       2.478       1.277      1.7675E-03
   9    9.998       9.013       8.003       6.969       5.917       4.851       3.746       2.574       1.323      1.8348E-03
  10    9.998       9.044       8.066       7.059       6.023       4.949       3.822       2.623       1.347      1.8707E-03
1
              HEAD IN LAYER   2 AT END OF TIME STEP  23 IN STRESS PERIOD    5
  ---------------------------------------------------------------------------

            1           2           3           4           5           6           7           8           9          10
 ........................................................................................................................
   1    9.997       8.946       7.876       6.794       5.719       4.658       3.583       2.457       1.262      3.4668E-03
   2    9.997       8.909       7.797       6.674       5.575       4.529       3.490       2.401       1.236      3.3959E-03
   3    9.997       8.845       7.656       6.450       5.302       4.289       3.324       2.305       1.193      3.2771E-03
   4    9.997       8.777       7.502       6.191       4.970       4.009       3.142       2.206       1.151      3.1607E-03
   5    9.997       8.749       7.431       6.057       4.784       3.864       3.058       2.165       1.135      3.1166E-03
   6    9.997       8.788       7.523       6.219       5.001       4.040       3.169       2.225       1.161      3.1890E-03
   7    9.997       8.868       7.701       6.511       5.371       4.357       3.382       2.347       1.215      3.3386E-03
   8    9.997       8.949       7.874       6.779       5.695       4.646       3.590       2.473       1.274      3.4996E-03
   9    9.998       9.009       7.998       6.962       5.910       4.844       3.739       2.568       1.319      3.6252E-03
  10    9.998       9.040       8.060       7.052       6.015       4.941       3.815       2.617       1.343      3.6920E-03
1
              HEAD IN LAYER   3 AT END OF TIME STEP  23 IN STRESS PERIOD    5
  ---------------------------------------------------------------------------

            1           2           3           4           5           6           7           8           9          10
 ........................................................................................................................
   1    9.997       8.944       7.872       6.789       5.713       4.652       3.577       2.452       1.258      3.7308E-03
   2    9.997       8.907       7.794       6.671       5.572       4.525       3.485       2.396       1.233      3.6551E-03
   3    9.997       8.843       7.655       6.451       5.305       4.289       3.321       2.301       1.190      3.5283E-03
   4    9.997       8.777       7.504       6.200       4.987       4.019       3.144       2.203       1.148      3.4045E-03
   5    9.997       8.749       7.435       6.073       4.813       3.882       3.063       2.164       1.132      3.3580E-03
   6    9.997       8.787       7.525       6.228       5.018       4.050       3.170       2.223       1.158      3.4350E-03
   7    9.997       8.866       7.699       6.512       5.374       4.357       3.379       2.343       1.212      3.5945E-03
   8    9.997       8.947       7.871       6.776       5.692       4.642       3.585       2.468       1.270      3.7667E-03
   9    9.998       9.007       7.994       6.958       5.905       4.838       3.733       2.562       1.315      3.9009E-03
  10    9.998       9.038       8.057       7.047       6.009       4.935       3.808       2.612       1.340      3.9725E-03
1
              HEAD IN LAYER   4 AT END OF TIME STEP  23 IN STRESS PERIOD    5
  ---------------------------------------------------------------------------

            1           2           3           4           5           6           7           8           9          10
 ........................................................................................................................
   1    9.997       8.943       7.870       6.787       5.710       4.649       3.574       2.449       1.256      3.7542E-03
   2    9.997       8.906       7.793       6.669       5.570       4.523       3.482       2.394       1.231      3.6781E-03
   3    9.997       8.842       7.654       6.452       5.307       4.290       3.320       2.299       1.188      3.5510E-03
   4    9.997       8.776       7.505       6.205       4.995       4.024       3.144       2.202       1.147      3.4269E-03
   5    9.997       8.749       7.438       6.081       4.828       3.890       3.065       2.163       1.131      3.3805E-03
   6    9.997       8.787       7.526       6.232       5.026       4.055       3.171       2.222       1.157      3.4577E-03
   7    9.997       8.866       7.699       6.513       5.376       4.358       3.378       2.341       1.211      3.6177E-03
   8    9.997       8.946       7.870       6.774       5.690       4.640       3.582       2.466       1.268      3.7906E-03
   9    9.998       9.006       7.992       6.955       5.902       4.835       3.730       2.560       1.314      3.9256E-03
  10    9.998       9.037       8.055       7.045       6.006       4.932       3.805       2.609       1.338      3.9975E-03

 HEAD WILL BE SAVED ON UNIT   51 AT END OF TIME STEP   23, STRESS PERIOD    5

 DRAWDOWN WILL BE SAVED ON UNIT   52 AT END OF TIME STEP   23, STRESS PERIOD    5
1
  VOLUMETRIC BUDGET FOR ENTIRE MODEL AT END OF TIME STEP   23, STRESS PERIOD   5
  ------------------------------------------------------------------------------

     CUMULATIVE VOLUMES      L**3       RATES FOR THIS TIME STEP      L**3/T
     ------------------                 ------------------------

           IN:                                      IN:
           ---                                      ---
             STORAGE =      528903.3125               STORAGE =         200.6028
       CONSTANT HEAD =           0.0000         CONSTANT HEAD =           0.0000
               WELLS =           0.0000                 WELLS =           0.0000
     HEAD DEP BOUNDS =       96319.7500       HEAD DEP BOUNDS =         659.2651

            TOTAL IN =      625223.0625              TOTAL IN =         859.8679

          OUT:                                     OUT:
          ----                                     ----
             STORAGE =        7341.1221               STORAGE =         241.3466
       CONSTANT HEAD =           0.0000         CONSTANT HEAD =           0.0000
               WELLS =      100000.0000                 WELLS =           0.0000
     HEAD DEP BOUNDS =      517883.8438       HEAD DEP BOUNDS =         618.5290

           TOTAL OUT =      625225.0000             TOTAL OUT =         859.8756

            IN - OUT =          -1.9375              IN - OUT =      -7.6904E-03

 PERCENT DISCREPANCY =          -0.00     PERCENT DISCREPANCY =          -0.00






         TIME SUMMARY AT END OF TIME STEP   23 IN STRESS PERIOD    5
                    SECONDS     MINUTES      HOURS       DAYS        YEARS
                    -----------------------------------------------------------
   TIME STEP LENGTH  86400.      1440.0      24.000      1.0000     2.73785E-03
 STRESS PERIOD TIME 1.98720E+06  33120.      552.00      23.000     6.29706E-02
         TOTAL TIME 2.79936E+07 4.66560E+05  7776.0      324.00     0.88706    
1
 
 SOLVING FOR HEAD 

 OUTPUT CONTROL FOR STRESS PERIOD    5   TIME STEP   24
    SAVE HEAD FOR ALL LAYERS
    SAVE DRAWDOWN FOR ALL LAYERS
    SAVE BUDGET
    PRINT HEAD FOR ALL LAYERS
    PRINT BUDGET
 UBDSV1 SAVING "         STORAGE" ON UNIT  53 AT TIME STEP 24, STRESS PERIOD   5
 UBDSV2 SAVING "   CONSTANT HEAD" ON UNIT  53 AT TIME STEP 24, STRESS PERIOD   5
 UBDSV1 SAVING "FLOW RIGHT FACE " ON UNIT  53 AT TIME STEP 24, STRESS PERIOD   5
 UBDSV1 SAVING "FLOW FRONT FACE " ON UNIT  53 AT TIME STEP 24, STRESS PERIOD   5
 UBDSV1 SAVING "FLOW LOWER FACE " ON UNIT  53 AT TIME STEP 24, STRESS PERIOD   5
1
              HEAD IN LAYER   1 AT END OF TIME STEP  24 IN STRESS PERIOD    5
  ---------------------------------------------------------------------------

            1           2           3           4           5           6           7           8           9          10
 ........................................................................................................................
   1    9.997       8.948       7.877       6.795       5.720       4.659       3.584       2.459       1.263      1.7464E-03
   2    9.997       8.911       7.799       6.675       5.577       4.530       3.491       2.403       1.237      1.7087E-03
   3    9.997       8.846       7.658       6.452       5.303       4.290       3.325       2.306       1.194      1.6455E-03
   4    9.997       8.779       7.504       6.192       4.970       4.010       3.143       2.207       1.152      1.5841E-03
   5    9.997       8.750       7.432       6.058       4.783       3.864       3.059       2.166       1.136      1.5609E-03
   6    9.997       8.790       7.524       6.220       5.002       4.041       3.170       2.226       1.162      1.5992E-03
   7    9.997       8.869       7.702       6.512       5.372       4.358       3.383       2.348       1.216      1.6783E-03
   8    9.997       8.951       7.875       6.780       5.696       4.647       3.591       2.474       1.275      1.7639E-03
   9    9.998       9.011       7.999       6.964       5.912       4.845       3.740       2.569       1.321      1.8310E-03
  10    9.998       9.042       8.062       7.054       6.016       4.943       3.816       2.619       1.345      1.8668E-03
1
              HEAD IN LAYER   2 AT END OF TIME STEP  24 IN STRESS PERIOD    5
  ---------------------------------------------------------------------------

            1           2           3           4           5           6           7           8           9          10
 ........................................................................................................................
   1    9.997       8.944       7.872       6.789       5.713       4.652       3.577       2.453       1.259      3.4593E-03
   2    9.997       8.908       7.795       6.671       5.573       4.525       3.485       2.397       1.234      3.3888E-03
   3    9.997       8.844       7.656       6.453       5.307       4.291       3.322       2.302       1.191      3.2708E-03
   4    9.997       8.778       7.507       6.204       4.991       4.022       3.145       2.204       1.149      3.1557E-03
   5    9.997       8.750       7.439       6.078       4.818       3.885       3.064       2.165       1.133      3.1125E-03
   6    9.997       8.789       7.527       6.232       5.022       4.053       3.172       2.224       1.159      3.1842E-03
   7    9.997       8.867       7.701       6.514       5.376       4.359       3.380       2.344       1.213      3.3325E-03
   8    9.997       8.948       7.872       6.776       5.692       4.642       3.585       2.469       1.271      3.4928E-03
   9    9.998       9.008       7.994       6.958       5.905       4.838       3.733       2.563       1.317      3.6180E-03
  10    9.998       9.038       8.056       7.047       6.009       4.935       3.809       2.612       1.341      3.6847E-03
1
              HEAD IN LAYER   3 AT END OF TIME STEP  24 IN STRESS PERIOD    5
  ---------------------------------------------------------------------------

            1           2           3           4           5           6           7           8           9          10
 ........................................................................................................................
   1    9.997       8.942       7.868       6.784       5.708       4.646       3.571       2.447       1.255      3.7228E-03
   2    9.997       8.905       7.792       6.668       5.570       4.521       3.480       2.392       1.230      3.6475E-03
   3    9.997       8.843       7.655       6.455       5.311       4.292       3.319       2.298       1.188      3.5218E-03
   4    9.997       8.778       7.509       6.213       5.006       4.031       3.146       2.202       1.146      3.3994E-03
   5    9.997       8.751       7.443       6.094       4.846       3.902       3.069       2.163       1.131      3.3538E-03
   6    9.997       8.788       7.529       6.241       5.038       4.062       3.173       2.222       1.157      3.4301E-03
   7    9.997       8.866       7.700       6.515       5.380       4.360       3.378       2.340       1.210      3.5882E-03
   8    9.997       8.946       7.869       6.773       5.689       4.638       3.580       2.464       1.268      3.7594E-03
   9    9.998       9.005       7.991       6.953       5.900       4.832       3.727       2.558       1.313      3.8933E-03
  10    9.998       9.036       8.053       7.042       6.003       4.928       3.802       2.607       1.337      3.9647E-03
1
              HEAD IN LAYER   4 AT END OF TIME STEP  24 IN STRESS PERIOD    5
  ---------------------------------------------------------------------------

            1           2           3           4           5           6           7           8           9          10
 ........................................................................................................................
   1    9.997       8.941       7.866       6.782       5.705       4.643       3.568       2.445       1.254      3.7462E-03
   2    9.997       8.904       7.790       6.667       5.568       4.519       3.478       2.390       1.228      3.6706E-03
   3    9.997       8.842       7.655       6.455       5.312       4.292       3.318       2.296       1.186      3.5444E-03
   4    9.997       8.777       7.510       6.217       5.014       4.036       3.147       2.201       1.145      3.4218E-03
   5    9.997       8.751       7.446       6.101       4.859       3.910       3.071       2.163       1.130      3.3764E-03
   6    9.997       8.788       7.531       6.245       5.046       4.067       3.174       2.220       1.155      3.4528E-03
   7    9.997       8.865       7.700       6.516       5.382       4.360       3.376       2.338       1.208      3.6114E-03
   8    9.997       8.945       7.867       6.772       5.688       4.636       3.578       2.462       1.266      3.7834E-03
   9    9.998       9.004       7.989       6.951       5.897       4.829       3.724       2.555       1.311      3.9179E-03
  10    9.998       9.035       8.051       7.040       6.000       4.925       3.799       2.604       1.335      3.9897E-03

 HEAD WILL BE SAVED ON UNIT   51 AT END OF TIME STEP   24, STRESS PERIOD    5

 DRAWDOWN WILL BE SAVED ON UNIT   52 AT END OF TIME STEP   24, STRESS PERIOD    5
1
  VOLUMETRIC BUDGET FOR ENTIRE MODEL AT END OF TIME STEP   24, STRESS PERIOD   5
  ------------------------------------------------------------------------------

     CUMULATIVE VOLUMES      L**3       RATES FOR THIS TIME STEP      L**3/T
     ------------------                 ------------------------

           IN:                                      IN:
           ---                                      ---
             STORAGE =      529097.5000               STORAGE =         194.1595
       CONSTANT HEAD =           0.0000         CONSTANT HEAD =           0.0000
               WELLS =           0.0000                 WELLS =           0.0000
     HEAD DEP BOUNDS =       96979.3984       HEAD DEP BOUNDS =         659.6522

            TOTAL IN =      626076.8750              TOTAL IN =         853.8116

          OUT:                                     OUT:
          ----                                     ----
             STORAGE =        7577.5347               STORAGE =         236.4128
       CONSTANT HEAD =           0.0000         CONSTANT HEAD =           0.0000
               WELLS =      100000.0000                 WELLS =           0.0000
     HEAD DEP BOUNDS =      518501.2500       HEAD DEP BOUNDS =         617.3987

           TOTAL OUT =      626078.7500             TOTAL OUT =         853.8115

            IN - OUT =          -1.8750              IN - OUT =       1.2207E-04

 PERCENT DISCREPANCY =          -0.00     PERCENT DISCREPANCY =           0.00






         TIME SUMMARY AT END OF TIME STEP   24 IN STRESS PERIOD    5
                    SECONDS     MINUTES      HOURS       DAYS        YEARS
                    -----------------------------------------------------------
   TIME STEP LENGTH  86400.      1440.0      24.000      1.0000     2.73785E-03
 STRESS PERIOD TIME 2.07360E+06  34560.      576.00      24.000     6.57084E-02
         TOTAL TIME 2.80800E+07 4.68000E+05  7800.0      325.00     0.88980    
1
 
 SOLVING FOR HEAD 

 OUTPUT CONTROL FOR STRESS PERIOD    5   TIME STEP   25
    SAVE HEAD FOR ALL LAYERS
    SAVE DRAWDOWN FOR ALL LAYERS
    SAVE BUDGET
    PRINT HEAD FOR ALL LAYERS
    PRINT BUDGET
 UBDSV1 SAVING "         STORAGE" ON UNIT  53 AT TIME STEP 25, STRESS PERIOD   5
 UBDSV2 SAVING "   CONSTANT HEAD" ON UNIT  53 AT TIME STEP 25, STRESS PERIOD   5
 UBDSV1 SAVING "FLOW RIGHT FACE " ON UNIT  53 AT TIME STEP 25, STRESS PERIOD   5
 UBDSV1 SAVING "FLOW FRONT FACE " ON UNIT  53 AT TIME STEP 25, STRESS PERIOD   5
 UBDSV1 SAVING "FLOW LOWER FACE " ON UNIT  53 AT TIME STEP 25, STRESS PERIOD   5
1
              HEAD IN LAYER   1 AT END OF TIME STEP  25 IN STRESS PERIOD    5
  ---------------------------------------------------------------------------

            1           2           3           4           5           6           7           8           9          10
 ........................................................................................................................
   1    9.997       8.946       7.874       6.791       5.715       4.653       3.578       2.454       1.260      1.7423E-03
   2    9.997       8.909       7.796       6.673       5.574       4.526       3.487       2.398       1.235      1.7049E-03
   3    9.997       8.846       7.658       6.455       5.309       4.292       3.323       2.303       1.192      1.6423E-03
   4    9.997       8.780       7.509       6.205       4.991       4.022       3.146       2.205       1.150      1.5815E-03
   5    9.997       8.752       7.440       6.079       4.818       3.885       3.065       2.166       1.134      1.5588E-03
   6    9.997       8.791       7.529       6.233       5.023       4.053       3.173       2.225       1.160      1.5966E-03
   7    9.997       8.869       7.702       6.515       5.378       4.360       3.381       2.345       1.214      1.6751E-03
   8    9.997       8.949       7.873       6.778       5.694       4.643       3.586       2.470       1.272      1.7604E-03
   9    9.998       9.009       7.996       6.959       5.906       4.839       3.735       2.564       1.318      1.8271E-03
  10    9.998       9.040       8.058       7.049       6.010       4.936       3.810       2.614       1.342      1.8627E-03
1
              HEAD IN LAYER   2 AT END OF TIME STEP  25 IN STRESS PERIOD    5
  ---------------------------------------------------------------------------

            1           2           3           4           5           6           7           8           9          10
 ........................................................................................................................
   1    9.997       8.942       7.868       6.784       5.708       4.646       3.571       2.448       1.256      3.4518E-03
   2    9.997       8.906       7.792       6.669       5.570       4.521       3.481       2.393       1.231      3.3817E-03
   3    9.997       8.844       7.657       6.457       5.313       4.293       3.320       2.298       1.189      3.2647E-03
   4    9.997       8.779       7.512       6.217       5.010       4.034       3.148       2.203       1.147      3.1510E-03
   5    9.997       8.752       7.446       6.098       4.851       3.905       3.071       2.164       1.132      3.1087E-03
   6    9.997       8.790       7.532       6.244       5.042       4.065       3.175       2.222       1.158      3.1796E-03
   7    9.997       8.867       7.701       6.517       5.382       4.361       3.378       2.341       1.211      3.3267E-03
   8    9.997       8.946       7.869       6.774       5.690       4.639       3.581       2.465       1.269      3.4862E-03
   9    9.998       9.006       7.991       6.953       5.900       4.832       3.728       2.559       1.314      3.6109E-03
  10    9.998       9.036       8.052       7.042       6.002       4.928       3.803       2.608       1.338      3.6774E-03
1
              HEAD IN LAYER   3 AT END OF TIME STEP  25 IN STRESS PERIOD    5
  ---------------------------------------------------------------------------

            1           2           3           4           5           6           7           8           9          10
 ........................................................................................................................
   1    9.997       8.940       7.865       6.780       5.703       4.640       3.565       2.443       1.253      3.7149E-03
   2    9.997       8.904       7.789       6.666       5.567       4.517       3.476       2.388       1.227      3.6401E-03
   3    9.997       8.842       7.656       6.458       5.316       4.294       3.318       2.295       1.185      3.5154E-03
   4    9.997       8.779       7.514       6.225       5.025       4.043       3.149       2.201       1.145      3.3945E-03
   5    9.997       8.753       7.451       6.113       4.876       3.921       3.075       2.163       1.130      3.3498E-03
   6    9.997       8.789       7.534       6.253       5.057       4.074       3.176       2.220       1.155      3.4253E-03
   7    9.997       8.866       7.701       6.519       5.386       4.362       3.376       2.337       1.208      3.5821E-03
   8    9.997       8.944       7.867       6.771       5.687       4.635       3.576       2.460       1.265      3.7524E-03
   9    9.998       9.003       7.987       6.949       5.895       4.827       3.722       2.553       1.310      3.8858E-03
  10    9.998       9.034       8.049       7.037       5.997       4.922       3.796       2.602       1.334      3.9570E-03
1
              HEAD IN LAYER   4 AT END OF TIME STEP  25 IN STRESS PERIOD    5
  ---------------------------------------------------------------------------

            1           2           3           4           5           6           7           8           9          10
 ........................................................................................................................
   1    9.997       8.939       7.863       6.778       5.700       4.637       3.562       2.440       1.251      3.7382E-03
   2    9.997       8.903       7.788       6.664       5.566       4.515       3.473       2.386       1.226      3.6631E-03
   3    9.997       8.841       7.655       6.459       5.318       4.294       3.316       2.293       1.184      3.5381E-03
   4    9.997       8.779       7.515       6.230       5.033       4.047       3.150       2.200       1.143      3.4170E-03
   5    9.997       8.753       7.453       6.121       4.889       3.929       3.078       2.162       1.128      3.3725E-03
   6    9.997       8.789       7.536       6.258       5.065       4.079       3.177       2.219       1.154      3.4482E-03
   7    9.997       8.865       7.700       6.520       5.387       4.362       3.375       2.335       1.206      3.6053E-03
   8    9.997       8.943       7.865       6.770       5.686       4.633       3.573       2.458       1.264      3.7763E-03
   9    9.998       9.002       7.986       6.946       5.892       4.824       3.719       2.551       1.309      3.9104E-03
  10    9.998       9.033       8.047       7.034       5.994       4.919       3.793       2.600       1.332      3.9820E-03

 HEAD WILL BE SAVED ON UNIT   51 AT END OF TIME STEP   25, STRESS PERIOD    5

 DRAWDOWN WILL BE SAVED ON UNIT   52 AT END OF TIME STEP   25, STRESS PERIOD    5
1
  VOLUMETRIC BUDGET FOR ENTIRE MODEL AT END OF TIME STEP   25, STRESS PERIOD   5
  ------------------------------------------------------------------------------

     CUMULATIVE VOLUMES      L**3       RATES FOR THIS TIME STEP      L**3/T
     ------------------                 ------------------------

           IN:                                      IN:
           ---                                      ---
             STORAGE =      529285.5625               STORAGE =         188.0422
       CONSTANT HEAD =           0.0000         CONSTANT HEAD =           0.0000
               WELLS =           0.0000                 WELLS =           0.0000
     HEAD DEP BOUNDS =       97639.3906       HEAD DEP BOUNDS =         659.9956

            TOTAL IN =      626924.9375              TOTAL IN =         848.0378

          OUT:                                     OUT:
          ----                                     ----
             STORAGE =        7809.2778               STORAGE =         231.7432
       CONSTANT HEAD =           0.0000         CONSTANT HEAD =           0.0000
               WELLS =      100000.0000                 WELLS =           0.0000
     HEAD DEP BOUNDS =      519117.5312       HEAD DEP BOUNDS =         616.2952

           TOTAL OUT =      626926.8125             TOTAL OUT =         848.0383

            IN - OUT =          -1.8750              IN - OUT =      -5.4932E-04

 PERCENT DISCREPANCY =          -0.00     PERCENT DISCREPANCY =          -0.00






         TIME SUMMARY AT END OF TIME STEP   25 IN STRESS PERIOD    5
                    SECONDS     MINUTES      HOURS       DAYS        YEARS
                    -----------------------------------------------------------
   TIME STEP LENGTH  86400.      1440.0      24.000      1.0000     2.73785E-03
 STRESS PERIOD TIME 2.16000E+06  36000.      600.00      25.000     6.84463E-02
         TOTAL TIME 2.81664E+07 4.69440E+05  7824.0      326.00     0.89254    
1
 
 SOLVING FOR HEAD 

 OUTPUT CONTROL FOR STRESS PERIOD    5   TIME STEP   26
    SAVE HEAD FOR ALL LAYERS
    SAVE DRAWDOWN FOR ALL LAYERS
    SAVE BUDGET
    PRINT HEAD FOR ALL LAYERS
    PRINT BUDGET
 UBDSV1 SAVING "         STORAGE" ON UNIT  53 AT TIME STEP 26, STRESS PERIOD   5
 UBDSV2 SAVING "   CONSTANT HEAD" ON UNIT  53 AT TIME STEP 26, STRESS PERIOD   5
 UBDSV1 SAVING "FLOW RIGHT FACE " ON UNIT  53 AT TIME STEP 26, STRESS PERIOD   5
 UBDSV1 SAVING "FLOW FRONT FACE " ON UNIT  53 AT TIME STEP 26, STRESS PERIOD   5
 UBDSV1 SAVING "FLOW LOWER FACE " ON UNIT  53 AT TIME STEP 26, STRESS PERIOD   5
1
              HEAD IN LAYER   1 AT END OF TIME STEP  26 IN STRESS PERIOD    5
  ---------------------------------------------------------------------------

            1           2           3           4           5           6           7           8           9          10
 ........................................................................................................................
   1    9.997       8.944       7.870       6.786       5.709       4.647       3.573       2.449       1.258      1.7384E-03
   2    9.997       8.908       7.794       6.670       5.572       4.523       3.482       2.394       1.232      1.7012E-03
   3    9.997       8.845       7.658       6.458       5.314       4.294       3.321       2.299       1.190      1.6391E-03
   4    9.997       8.781       7.513       6.218       5.011       4.034       3.149       2.204       1.148      1.5789E-03
   5    9.997       8.754       7.448       6.099       4.850       3.906       3.072       2.165       1.133      1.5569E-03
   6    9.997       8.792       7.534       6.245       5.042       4.066       3.176       2.223       1.159      1.5942E-03
   7    9.997       8.868       7.703       6.519       5.383       4.362       3.380       2.342       1.212      1.6721E-03
   8    9.997       8.948       7.871       6.776       5.692       4.640       3.582       2.466       1.270      1.7568E-03
   9    9.998       9.007       7.992       6.955       5.901       4.834       3.729       2.560       1.315      1.8233E-03
  10    9.998       9.038       8.054       7.043       6.004       4.930       3.804       2.609       1.340      1.8589E-03
1
              HEAD IN LAYER   2 AT END OF TIME STEP  26 IN STRESS PERIOD    5
  ---------------------------------------------------------------------------

            1           2           3           4           5           6           7           8           9          10
 ........................................................................................................................
   1    9.997       8.940       7.865       6.780       5.703       4.640       3.566       2.443       1.254      3.4445E-03
   2    9.997       8.905       7.790       6.666       5.568       4.518       3.476       2.389       1.228      3.3748E-03
   3    9.997       8.843       7.657       6.460       5.318       4.295       3.318       2.295       1.186      3.2588E-03
   4    9.997       8.780       7.516       6.229       5.029       4.045       3.151       2.202       1.146      3.1465E-03
   5    9.997       8.754       7.454       6.118       4.881       3.924       3.077       2.164       1.131      3.1051E-03
   6    9.997       8.791       7.537       6.257       5.061       4.077       3.178       2.221       1.156      3.1752E-03
   7    9.997       8.867       7.702       6.521       5.388       4.363       3.377       2.338       1.209      3.3211E-03
   8    9.997       8.945       7.867       6.772       5.688       4.636       3.576       2.461       1.266      3.4796E-03
   9    9.998       9.004       7.987       6.949       5.895       4.827       3.722       2.554       1.311      3.6039E-03
  10    9.998       9.034       8.049       7.037       5.996       4.922       3.797       2.603       1.336      3.6703E-03
1
              HEAD IN LAYER   3 AT END OF TIME STEP  26 IN STRESS PERIOD    5
  ---------------------------------------------------------------------------

            1           2           3           4           5           6           7           8           9          10
 ........................................................................................................................
   1    9.997       8.938       7.861       6.776       5.698       4.634       3.560       2.438       1.250      3.7071E-03
   2    9.997       8.903       7.787       6.664       5.565       4.514       3.471       2.384       1.225      3.6328E-03
   3    9.997       8.842       7.656       6.461       5.322       4.296       3.316       2.292       1.183      3.5092E-03
   4    9.997       8.780       7.519       6.238       5.044       4.055       3.153       2.199       1.143      3.3898E-03
   5    9.997       8.755       7.459       6.132       4.905       3.940       3.082       2.163       1.128      3.3462E-03
   6    9.997       8.791       7.539       6.266       5.075       4.086       3.180       2.219       1.154      3.4208E-03
   7    9.997       8.865       7.701       6.522       5.391       4.365       3.375       2.334       1.206      3.5762E-03
   8    9.997       8.943       7.865       6.769       5.686       4.632       3.572       2.456       1.263      3.7454E-03
   9    9.998       9.002       7.984       6.944       5.890       4.821       3.716       2.549       1.308      3.8783E-03
  10    9.998       9.032       8.045       7.032       5.991       4.916       3.790       2.598       1.332      3.9494E-03
1
              HEAD IN LAYER   4 AT END OF TIME STEP  26 IN STRESS PERIOD    5
  ---------------------------------------------------------------------------

            1           2           3           4           5           6           7           8           9          10
 ........................................................................................................................
   1    9.997       8.937       7.860       6.773       5.695       4.632       3.557       2.435       1.248      3.7304E-03
   2    9.997       8.902       7.786       6.662       5.564       4.512       3.469       2.381       1.223      3.6558E-03
   3    9.997       8.841       7.656       6.462       5.323       4.297       3.315       2.290       1.182      3.5319E-03
   4    9.997       8.780       7.520       6.242       5.051       4.059       3.153       2.198       1.142      3.4125E-03
   5    9.997       8.755       7.461       6.139       4.917       3.948       3.084       2.162       1.127      3.3690E-03
   6    9.997       8.791       7.541       6.270       5.083       4.090       3.181       2.218       1.152      3.4437E-03
   7    9.997       8.865       7.701       6.523       5.393       4.365       3.374       2.333       1.204      3.5995E-03
   8    9.997       8.942       7.863       6.768       5.684       4.630       3.569       2.454       1.261      3.7693E-03
   9    9.998       9.001       7.982       6.942       5.887       4.818       3.713       2.546       1.306      3.9029E-03
  10    9.998       9.031       8.043       7.029       5.988       4.912       3.787       2.595       1.330      3.9744E-03

 HEAD WILL BE SAVED ON UNIT   51 AT END OF TIME STEP   26, STRESS PERIOD    5

 DRAWDOWN WILL BE SAVED ON UNIT   52 AT END OF TIME STEP   26, STRESS PERIOD    5
1
  VOLUMETRIC BUDGET FOR ENTIRE MODEL AT END OF TIME STEP   26, STRESS PERIOD   5
  ------------------------------------------------------------------------------

     CUMULATIVE VOLUMES      L**3       RATES FOR THIS TIME STEP      L**3/T
     ------------------                 ------------------------

           IN:                                      IN:
           ---                                      ---
             STORAGE =      529467.6250               STORAGE =         182.0507
       CONSTANT HEAD =           0.0000         CONSTANT HEAD =           0.0000
               WELLS =           0.0000                 WELLS =           0.0000
     HEAD DEP BOUNDS =       98299.6719       HEAD DEP BOUNDS =         660.2844

            TOTAL IN =      627767.3125              TOTAL IN =         842.3351

          OUT:                                     OUT:
          ----                                     ----
             STORAGE =        8036.3979               STORAGE =         227.1200
       CONSTANT HEAD =           0.0000         CONSTANT HEAD =           0.0000
               WELLS =      100000.0000                 WELLS =           0.0000
     HEAD DEP BOUNDS =      519732.7500       HEAD DEP BOUNDS =         615.2204

           TOTAL OUT =      627769.1250             TOTAL OUT =         842.3403

            IN - OUT =          -1.8125              IN - OUT =      -5.2490E-03

 PERCENT DISCREPANCY =          -0.00     PERCENT DISCREPANCY =          -0.00






         TIME SUMMARY AT END OF TIME STEP   26 IN STRESS PERIOD    5
                    SECONDS     MINUTES      HOURS       DAYS        YEARS
                    -----------------------------------------------------------
   TIME STEP LENGTH  86400.      1440.0      24.000      1.0000     2.73785E-03
 STRESS PERIOD TIME 2.24640E+06  37440.      624.00      26.000     7.11841E-02
         TOTAL TIME 2.82528E+07 4.70880E+05  7848.0      327.00     0.89528    
1
 
 SOLVING FOR HEAD 

 OUTPUT CONTROL FOR STRESS PERIOD    5   TIME STEP   27
    SAVE HEAD FOR ALL LAYERS
    SAVE DRAWDOWN FOR ALL LAYERS
    SAVE BUDGET
    PRINT HEAD FOR ALL LAYERS
    PRINT BUDGET
 UBDSV1 SAVING "         STORAGE" ON UNIT  53 AT TIME STEP 27, STRESS PERIOD   5
 UBDSV2 SAVING "   CONSTANT HEAD" ON UNIT  53 AT TIME STEP 27, STRESS PERIOD   5
 UBDSV1 SAVING "FLOW RIGHT FACE " ON UNIT  53 AT TIME STEP 27, STRESS PERIOD   5
 UBDSV1 SAVING "FLOW FRONT FACE " ON UNIT  53 AT TIME STEP 27, STRESS PERIOD   5
 UBDSV1 SAVING "FLOW LOWER FACE " ON UNIT  53 AT TIME STEP 27, STRESS PERIOD   5
1
              HEAD IN LAYER   1 AT END OF TIME STEP  27 IN STRESS PERIOD    5
  ---------------------------------------------------------------------------

            1           2           3           4           5           6           7           8           9          10
 ........................................................................................................................
   1    9.997       8.942       7.867       6.782       5.704       4.641       3.567       2.444       1.255      1.7345E-03
   2    9.997       8.906       7.792       6.668       5.570       4.519       3.477       2.390       1.230      1.6975E-03
   3    9.997       8.845       7.659       6.461       5.319       4.296       3.320       2.296       1.187      1.6361E-03
   4    9.997       8.782       7.518       6.230       5.030       4.046       3.152       2.203       1.147      1.5767E-03
   5    9.997       8.756       7.456       6.118       4.881       3.925       3.078       2.165       1.132      1.5548E-03
   6    9.997       8.793       7.538       6.258       5.061       4.078       3.179       2.222       1.157      1.5919E-03
   7    9.997       8.868       7.704       6.522       5.389       4.365       3.378       2.339       1.210      1.6690E-03
   8    9.997       8.946       7.869       6.774       5.690       4.637       3.578       2.462       1.268      1.7533E-03
   9    9.998       9.005       7.989       6.950       5.896       4.828       3.723       2.555       1.313      1.8196E-03
  10    9.998       9.035       8.050       7.038       5.998       4.923       3.798       2.604       1.337      1.8551E-03
1
              HEAD IN LAYER   2 AT END OF TIME STEP  27 IN STRESS PERIOD    5
  ---------------------------------------------------------------------------

            1           2           3           4           5           6           7           8           9          10
 ........................................................................................................................
   1    9.997       8.939       7.862       6.776       5.698       4.635       3.560       2.438       1.251      3.4372E-03
   2    9.997       8.903       7.788       6.664       5.566       4.515       3.472       2.384       1.226      3.3680E-03
   3    9.997       8.843       7.658       6.463       5.324       4.298       3.317       2.292       1.184      3.2531E-03
   4    9.997       8.781       7.521       6.241       5.047       4.057       3.154       2.200       1.144      3.1422E-03
   5    9.997       8.756       7.462       6.137       4.909       3.943       3.083       2.164       1.129      3.1017E-03
   6    9.997       8.792       7.542       6.269       5.079       4.088       3.181       2.220       1.154      3.1711E-03
   7    9.997       8.866       7.703       6.524       5.393       4.366       3.376       2.335       1.207      3.3156E-03
   8    9.997       8.944       7.865       6.770       5.686       4.632       3.572       2.457       1.264      3.4731E-03
   9    9.998       9.002       7.984       6.944       5.890       4.821       3.717       2.550       1.309      3.5970E-03
  10    9.998       9.032       8.045       7.031       5.990       4.916       3.791       2.599       1.333      3.6632E-03
1
              HEAD IN LAYER   3 AT END OF TIME STEP  27 IN STRESS PERIOD    5
  ---------------------------------------------------------------------------

            1           2           3           4           5           6           7           8           9          10
 ........................................................................................................................
   1    9.997       8.936       7.858       6.771       5.693       4.629       3.554       2.433       1.248      3.6994E-03
   2    9.997       8.901       7.785       6.662       5.564       4.511       3.467       2.380       1.223      3.6256E-03
   3    9.997       8.842       7.657       6.465       5.327       4.299       3.315       2.289       1.181      3.5032E-03
   4    9.997       8.781       7.524       6.250       5.061       4.066       3.156       2.198       1.142      3.3854E-03
   5    9.997       8.757       7.466       6.150       4.932       3.958       3.088       2.163       1.127      3.3428E-03
   6    9.997       8.792       7.544       6.278       5.093       4.097       3.183       2.218       1.152      3.4166E-03
   7    9.997       8.865       7.702       6.526       5.397       4.367       3.374       2.332       1.204      3.5704E-03
   8    9.997       8.942       7.863       6.768       5.684       4.629       3.568       2.452       1.261      3.7386E-03
   9    9.998       9.000       7.981       6.940       5.885       4.816       3.711       2.545       1.305      3.8710E-03
  10    9.998       9.030       8.041       7.027       5.985       4.909       3.785       2.593       1.329      3.9419E-03
1
              HEAD IN LAYER   4 AT END OF TIME STEP  27 IN STRESS PERIOD    5
  ---------------------------------------------------------------------------

            1           2           3           4           5           6           7           8           9          10
 ........................................................................................................................
   1    9.997       8.935       7.856       6.769       5.690       4.626       3.551       2.431       1.246      3.7227E-03
   2    9.997       8.900       7.784       6.660       5.562       4.509       3.465       2.378       1.221      3.6487E-03
   3    9.997       8.841       7.657       6.465       5.329       4.299       3.314       2.287       1.180      3.5260E-03
   4    9.997       8.781       7.525       6.254       5.068       4.070       3.157       2.198       1.140      3.4082E-03
   5    9.997       8.757       7.469       6.157       4.943       3.965       3.090       2.163       1.126      3.3656E-03
   6    9.997       8.792       7.546       6.282       5.100       4.102       3.184       2.217       1.151      3.4395E-03
   7    9.997       8.865       7.702       6.527       5.399       4.368       3.373       2.330       1.203      3.5938E-03
   8    9.997       8.941       7.861       6.766       5.683       4.627       3.565       2.450       1.259      3.7625E-03
   9    9.998       8.999       7.979       6.938       5.882       4.813       3.708       2.542       1.304      3.8956E-03
  10    9.998       9.029       8.039       7.024       5.982       4.906       3.782       2.591       1.327      3.9668E-03

 HEAD WILL BE SAVED ON UNIT   51 AT END OF TIME STEP   27, STRESS PERIOD    5

 DRAWDOWN WILL BE SAVED ON UNIT   52 AT END OF TIME STEP   27, STRESS PERIOD    5
1
  VOLUMETRIC BUDGET FOR ENTIRE MODEL AT END OF TIME STEP   27, STRESS PERIOD   5
  ------------------------------------------------------------------------------

     CUMULATIVE VOLUMES      L**3       RATES FOR THIS TIME STEP      L**3/T
     ------------------                 ------------------------

           IN:                                      IN:
           ---                                      ---
             STORAGE =      529643.8125               STORAGE =         176.1625
       CONSTANT HEAD =           0.0000         CONSTANT HEAD =           0.0000
               WELLS =           0.0000                 WELLS =           0.0000
     HEAD DEP BOUNDS =       98960.2109       HEAD DEP BOUNDS =         660.5416

            TOTAL IN =      628604.0000              TOTAL IN =         836.7042

          OUT:                                     OUT:
          ----                                     ----
             STORAGE =        8258.9316               STORAGE =         222.5335
       CONSTANT HEAD =           0.0000         CONSTANT HEAD =           0.0000
               WELLS =      100000.0000                 WELLS =           0.0000
     HEAD DEP BOUNDS =      520346.9375       HEAD DEP BOUNDS =         614.1733

           TOTAL OUT =      628605.8750             TOTAL OUT =         836.7067

            IN - OUT =          -1.8750              IN - OUT =      -2.5635E-03

 PERCENT DISCREPANCY =          -0.00     PERCENT DISCREPANCY =          -0.00






         TIME SUMMARY AT END OF TIME STEP   27 IN STRESS PERIOD    5
                    SECONDS     MINUTES      HOURS       DAYS        YEARS
                    -----------------------------------------------------------
   TIME STEP LENGTH  86400.      1440.0      24.000      1.0000     2.73785E-03
 STRESS PERIOD TIME 2.33280E+06  38880.      648.00      27.000     7.39220E-02
         TOTAL TIME 2.83392E+07 4.72320E+05  7872.0      328.00     0.89802    
1
 
 SOLVING FOR HEAD 

 OUTPUT CONTROL FOR STRESS PERIOD    5   TIME STEP   28
    SAVE HEAD FOR ALL LAYERS
    SAVE DRAWDOWN FOR ALL LAYERS
    SAVE BUDGET
    PRINT HEAD FOR ALL LAYERS
    PRINT BUDGET
 UBDSV1 SAVING "         STORAGE" ON UNIT  53 AT TIME STEP 28, STRESS PERIOD   5
 UBDSV2 SAVING "   CONSTANT HEAD" ON UNIT  53 AT TIME STEP 28, STRESS PERIOD   5
 UBDSV1 SAVING "FLOW RIGHT FACE " ON UNIT  53 AT TIME STEP 28, STRESS PERIOD   5
 UBDSV1 SAVING "FLOW FRONT FACE " ON UNIT  53 AT TIME STEP 28, STRESS PERIOD   5
 UBDSV1 SAVING "FLOW LOWER FACE " ON UNIT  53 AT TIME STEP 28, STRESS PERIOD   5
1
              HEAD IN LAYER   1 AT END OF TIME STEP  28 IN STRESS PERIOD    5
  ---------------------------------------------------------------------------

            1           2           3           4           5           6           7           8           9          10
 ........................................................................................................................
   1    9.997       8.940       7.863       6.777       5.699       4.636       3.561       2.440       1.252      1.7306E-03
   2    9.997       8.905       7.789       6.666       5.568       4.516       3.473       2.386       1.227      1.6938E-03
   3    9.997       8.844       7.660       6.465       5.325       4.299       3.318       2.294       1.185      1.6331E-03
   4    9.997       8.783       7.523       6.242       5.048       4.058       3.155       2.201       1.145      1.5744E-03
   5    9.997       8.758       7.463       6.137       4.909       3.944       3.084       2.165       1.130      1.5531E-03
   6    9.997       8.794       7.543       6.270       5.080       4.089       3.182       2.221       1.156      1.5897E-03
   7    9.997       8.868       7.704       6.526       5.394       4.367       3.377       2.336       1.208      1.6661E-03
   8    9.997       8.945       7.867       6.772       5.688       4.634       3.573       2.458       1.265      1.7498E-03
   9    9.998       9.003       7.986       6.946       5.891       4.822       3.718       2.551       1.310      1.8159E-03
  10    9.998       9.033       8.046       7.033       5.992       4.917       3.792       2.600       1.334      1.8513E-03
1
              HEAD IN LAYER   2 AT END OF TIME STEP  28 IN STRESS PERIOD    5
  ---------------------------------------------------------------------------

            1           2           3           4           5           6           7           8           9          10
 ........................................................................................................................
   1    9.997       8.937       7.858       6.772       5.693       4.629       3.555       2.434       1.248      3.4300E-03
   2    9.997       8.902       7.786       6.662       5.564       4.512       3.468       2.380       1.224      3.3614E-03
   3    9.997       8.843       7.659       6.467       5.329       4.300       3.316       2.290       1.182      3.2476E-03
   4    9.997       8.783       7.526       6.253       5.065       4.068       3.157       2.199       1.143      3.1381E-03
   5    9.997       8.759       7.469       6.155       4.936       3.961       3.089       2.164       1.128      3.0985E-03
   6    9.997       8.793       7.547       6.281       5.097       4.100       3.184       2.219       1.153      3.1671E-03
   7    9.997       8.866       7.704       6.528       5.399       4.369       3.375       2.333       1.205      3.3102E-03
   8    9.997       8.942       7.863       6.768       5.685       4.630       3.568       2.453       1.262      3.4668E-03
   9    9.998       9.000       7.981       6.940       5.885       4.816       3.711       2.545       1.306      3.5901E-03
  10    9.998       9.030       8.041       7.026       5.984       4.909       3.785       2.594       1.330      3.6562E-03
1
              HEAD IN LAYER   3 AT END OF TIME STEP  28 IN STRESS PERIOD    5
  ---------------------------------------------------------------------------

            1           2           3           4           5           6           7           8           9          10
 ........................................................................................................................
   1    9.997       8.935       7.855       6.767       5.688       4.624       3.549       2.429       1.245      3.6918E-03
   2    9.997       8.900       7.783       6.660       5.562       4.508       3.463       2.376       1.220      3.6186E-03
   3    9.997       8.841       7.658       6.468       5.332       4.301       3.314       2.286       1.179      3.4974E-03
   4    9.997       8.782       7.529       6.261       5.078       4.077       3.159       2.198       1.140      3.3813E-03
   5    9.997       8.759       7.474       6.168       4.957       3.975       3.094       2.163       1.126      3.3396E-03
   6    9.997       8.793       7.549       6.290       5.110       4.109       3.186       2.217       1.151      3.4125E-03
   7    9.997       8.865       7.703       6.530       5.402       4.370       3.373       2.329       1.202      3.5649E-03
   8    9.997       8.941       7.861       6.766       5.682       4.626       3.564       2.449       1.258      3.7319E-03
   9    9.998       8.998       7.978       6.936       5.880       4.810       3.706       2.540       1.303      3.8637E-03
  10    9.998       9.028       8.037       7.021       5.979       4.903       3.779       2.589       1.327      3.9344E-03
1
              HEAD IN LAYER   4 AT END OF TIME STEP  28 IN STRESS PERIOD    5
  ---------------------------------------------------------------------------

            1           2           3           4           5           6           7           8           9          10
 ........................................................................................................................
   1    9.997       8.933       7.853       6.765       5.686       4.621       3.546       2.426       1.243      3.7151E-03
   2    9.997       8.899       7.782       6.659       5.560       4.506       3.461       2.374       1.219      3.6417E-03
   3    9.997       8.841       7.658       6.469       5.334       4.302       3.313       2.285       1.178      3.5202E-03
   4    9.997       8.782       7.530       6.266       5.085       4.081       3.160       2.197       1.139      3.4041E-03
   5    9.997       8.759       7.476       6.174       4.968       3.982       3.096       2.163       1.125      3.3625E-03
   6    9.997       8.793       7.551       6.294       5.117       4.113       3.187       2.217       1.150      3.4356E-03
   7    9.997       8.864       7.703       6.531       5.404       4.371       3.372       2.328       1.201      3.5883E-03
   8    9.997       8.940       7.860       6.765       5.681       4.625       3.562       2.446       1.257      3.7559E-03
   9    9.997       8.997       7.976       6.934       5.878       4.808       3.703       2.538       1.301      3.8883E-03
  10    9.998       9.027       8.036       7.019       5.976       4.900       3.776       2.586       1.325      3.9593E-03

 HEAD WILL BE SAVED ON UNIT   51 AT END OF TIME STEP   28, STRESS PERIOD    5

 DRAWDOWN WILL BE SAVED ON UNIT   52 AT END OF TIME STEP   28, STRESS PERIOD    5
1
  VOLUMETRIC BUDGET FOR ENTIRE MODEL AT END OF TIME STEP   28, STRESS PERIOD   5
  ------------------------------------------------------------------------------

     CUMULATIVE VOLUMES      L**3       RATES FOR THIS TIME STEP      L**3/T
     ------------------                 ------------------------

           IN:                                      IN:
           ---                                      ---
             STORAGE =      529814.1875               STORAGE =         170.3785
       CONSTANT HEAD =           0.0000         CONSTANT HEAD =           0.0000
               WELLS =           0.0000                 WELLS =           0.0000
     HEAD DEP BOUNDS =       99620.9844       HEAD DEP BOUNDS =         660.7708

            TOTAL IN =      629435.1875              TOTAL IN =         831.1493

          OUT:                                     OUT:
          ----                                     ----
             STORAGE =        8476.9131               STORAGE =         217.9816
       CONSTANT HEAD =           0.0000         CONSTANT HEAD =           0.0000
               WELLS =      100000.0000                 WELLS =           0.0000
     HEAD DEP BOUNDS =      520960.0938       HEAD DEP BOUNDS =         613.1532

           TOTAL OUT =      629437.0000             TOTAL OUT =         831.1348

            IN - OUT =          -1.8125              IN - OUT =       1.4526E-02

 PERCENT DISCREPANCY =          -0.00     PERCENT DISCREPANCY =           0.00






         TIME SUMMARY AT END OF TIME STEP   28 IN STRESS PERIOD    5
                    SECONDS     MINUTES      HOURS       DAYS        YEARS
                    -----------------------------------------------------------
   TIME STEP LENGTH  86400.      1440.0      24.000      1.0000     2.73785E-03
 STRESS PERIOD TIME 2.41920E+06  40320.      672.00      28.000     7.66598E-02
         TOTAL TIME 2.84256E+07 4.73760E+05  7896.0      329.00     0.90075    
1
 
 SOLVING FOR HEAD 

 OUTPUT CONTROL FOR STRESS PERIOD    5   TIME STEP   29
    SAVE HEAD FOR ALL LAYERS
    SAVE DRAWDOWN FOR ALL LAYERS
    SAVE BUDGET
    PRINT HEAD FOR ALL LAYERS
    PRINT BUDGET
 UBDSV1 SAVING "         STORAGE" ON UNIT  53 AT TIME STEP 29, STRESS PERIOD   5
 UBDSV2 SAVING "   CONSTANT HEAD" ON UNIT  53 AT TIME STEP 29, STRESS PERIOD   5
 UBDSV1 SAVING "FLOW RIGHT FACE " ON UNIT  53 AT TIME STEP 29, STRESS PERIOD   5
 UBDSV1 SAVING "FLOW FRONT FACE " ON UNIT  53 AT TIME STEP 29, STRESS PERIOD   5
 UBDSV1 SAVING "FLOW LOWER FACE " ON UNIT  53 AT TIME STEP 29, STRESS PERIOD   5
1
              HEAD IN LAYER   1 AT END OF TIME STEP  29 IN STRESS PERIOD    5
  ---------------------------------------------------------------------------

            1           2           3           4           5           6           7           8           9          10
 ........................................................................................................................
   1    9.997       8.938       7.860       6.773       5.694       4.630       3.556       2.435       1.250      1.7268E-03
   2    9.997       8.903       7.787       6.664       5.566       4.513       3.469       2.382       1.225      1.6903E-03
   3    9.997       8.844       7.660       6.468       5.330       4.301       3.317       2.291       1.183      1.6300E-03
   4    9.997       8.784       7.528       6.254       5.065       4.069       3.158       2.200       1.144      1.5723E-03
   5    9.997       8.760       7.471       6.155       4.936       3.961       3.090       2.165       1.129      1.5516E-03
   6    9.997       8.795       7.548       6.282       5.097       4.101       3.185       2.220       1.154      1.5877E-03
   7    9.997       8.868       7.705       6.529       5.400       4.370       3.376       2.334       1.206      1.6633E-03
   8    9.997       8.944       7.865       6.770       5.686       4.631       3.569       2.454       1.263      1.7465E-03
   9    9.998       9.001       7.982       6.942       5.886       4.817       3.713       2.547       1.308      1.8122E-03
  10    9.998       9.031       8.042       7.028       5.986       4.911       3.786       2.595       1.332      1.8476E-03
1
              HEAD IN LAYER   2 AT END OF TIME STEP  29 IN STRESS PERIOD    5
  ---------------------------------------------------------------------------

            1           2           3           4           5           6           7           8           9          10
 ........................................................................................................................
   1    9.997       8.935       7.855       6.768       5.688       4.624       3.549       2.429       1.246      3.4230E-03
   2    9.997       8.901       7.784       6.661       5.563       4.509       3.464       2.377       1.221      3.3549E-03
   3    9.997       8.842       7.660       6.470       5.334       4.303       3.315       2.287       1.180      3.2422E-03
   4    9.997       8.784       7.531       6.265       5.082       4.080       3.161       2.199       1.141      3.1343E-03
   5    9.997       8.761       7.477       6.172       4.961       3.978       3.096       2.164       1.127      3.0956E-03
   6    9.997       8.795       7.552       6.293       5.114       4.111       3.188       2.218       1.152      3.1634E-03
   7    9.997       8.866       7.705       6.532       5.404       4.371       3.374       2.330       1.203      3.3051E-03
   8    9.997       8.941       7.862       6.767       5.683       4.627       3.564       2.449       1.260      3.4606E-03
   9    9.998       8.998       7.978       6.936       5.880       4.810       3.706       2.541       1.304      3.5833E-03
  10    9.998       9.028       8.037       7.021       5.979       4.903       3.779       2.589       1.328      3.6492E-03
1
              HEAD IN LAYER   3 AT END OF TIME STEP  29 IN STRESS PERIOD    5
  ---------------------------------------------------------------------------

            1           2           3           4           5           6           7           8           9          10
 ........................................................................................................................
   1    9.997       8.933       7.852       6.763       5.684       4.619       3.544       2.425       1.242      3.6843E-03
   2    9.997       8.899       7.781       6.658       5.560       4.505       3.459       2.372       1.218      3.6117E-03
   3    9.997       8.841       7.659       6.472       5.338       4.304       3.313       2.284       1.177      3.4918E-03
   4    9.997       8.784       7.534       6.273       5.094       4.088       3.163       2.197       1.139      3.3774E-03
   5    9.997       8.761       7.481       6.184       4.981       3.992       3.100       2.164       1.125      3.3366E-03
   6    9.997       8.795       7.555       6.301       5.127       4.120       3.190       2.217       1.149      3.4087E-03
   7    9.997       8.865       7.705       6.534       5.408       4.373       3.372       2.327       1.200      3.5595E-03
   8    9.997       8.940       7.859       6.765       5.681       4.624       3.560       2.445       1.256      3.7253E-03
   9    9.997       8.996       7.974       6.932       5.875       4.805       3.701       2.536       1.300      3.8565E-03
  10    9.998       9.026       8.034       7.017       5.973       4.897       3.773       2.584       1.324      3.9270E-03
1
              HEAD IN LAYER   4 AT END OF TIME STEP  29 IN STRESS PERIOD    5
  ---------------------------------------------------------------------------

            1           2           3           4           5           6           7           8           9          10
 ........................................................................................................................
   1    9.997       8.932       7.850       6.761       5.681       4.616       3.541       2.422       1.241      3.7076E-03
   2    9.997       8.898       7.780       6.657       5.559       4.503       3.457       2.370       1.216      3.6348E-03
   3    9.997       8.841       7.659       6.473       5.339       4.304       3.312       2.282       1.176      3.5147E-03
   4    9.997       8.784       7.535       6.277       5.101       4.092       3.164       2.196       1.138      3.4002E-03
   5    9.997       8.761       7.484       6.191       4.991       3.998       3.102       2.163       1.124      3.3596E-03
   6    9.997       8.795       7.556       6.305       5.133       4.124       3.191       2.216       1.148      3.4319E-03
   7    9.997       8.864       7.704       6.535       5.410       4.373       3.371       2.325       1.199      3.5830E-03
   8    9.997       8.939       7.858       6.763       5.680       4.622       3.558       2.443       1.255      3.7493E-03
   9    9.997       8.995       7.973       6.930       5.873       4.802       3.698       2.534       1.299      3.8811E-03
  10    9.998       9.025       8.032       7.014       5.970       4.894       3.770       2.582       1.322      3.9519E-03

 HEAD WILL BE SAVED ON UNIT   51 AT END OF TIME STEP   29, STRESS PERIOD    5

 DRAWDOWN WILL BE SAVED ON UNIT   52 AT END OF TIME STEP   29, STRESS PERIOD    5
1
  VOLUMETRIC BUDGET FOR ENTIRE MODEL AT END OF TIME STEP   29, STRESS PERIOD   5
  ------------------------------------------------------------------------------

     CUMULATIVE VOLUMES      L**3       RATES FOR THIS TIME STEP      L**3/T
     ------------------                 ------------------------

           IN:                                      IN:
           ---                                      ---
             STORAGE =      529979.0000               STORAGE =         164.8203
       CONSTANT HEAD =           0.0000         CONSTANT HEAD =           0.0000
               WELLS =           0.0000                 WELLS =           0.0000
     HEAD DEP BOUNDS =      100281.9297       HEAD DEP BOUNDS =         660.9466

            TOTAL IN =      630260.9375              TOTAL IN =         825.7670

          OUT:                                     OUT:
          ----                                     ----
             STORAGE =        8690.5049               STORAGE =         213.5918
       CONSTANT HEAD =           0.0000         CONSTANT HEAD =           0.0000
               WELLS =      100000.0000                 WELLS =           0.0000
     HEAD DEP BOUNDS =      521572.2500       HEAD DEP BOUNDS =         612.1641

           TOTAL OUT =      630262.7500             TOTAL OUT =         825.7559

            IN - OUT =          -1.8125              IN - OUT =       1.1047E-02

 PERCENT DISCREPANCY =          -0.00     PERCENT DISCREPANCY =           0.00






         TIME SUMMARY AT END OF TIME STEP   29 IN STRESS PERIOD    5
                    SECONDS     MINUTES      HOURS       DAYS        YEARS
                    -----------------------------------------------------------
   TIME STEP LENGTH  86400.      1440.0      24.000      1.0000     2.73785E-03
 STRESS PERIOD TIME 2.50560E+06  41760.      696.00      29.000     7.93977E-02
         TOTAL TIME 2.85120E+07 4.75200E+05  7920.0      330.00     0.90349    
1
 
 SOLVING FOR HEAD 

 OUTPUT CONTROL FOR STRESS PERIOD    5   TIME STEP   30
    SAVE HEAD FOR ALL LAYERS
    SAVE DRAWDOWN FOR ALL LAYERS
    SAVE BUDGET
    PRINT HEAD FOR ALL LAYERS
    PRINT BUDGET
 UBDSV1 SAVING "         STORAGE" ON UNIT  53 AT TIME STEP 30, STRESS PERIOD   5
 UBDSV2 SAVING "   CONSTANT HEAD" ON UNIT  53 AT TIME STEP 30, STRESS PERIOD   5
 UBDSV1 SAVING "FLOW RIGHT FACE " ON UNIT  53 AT TIME STEP 30, STRESS PERIOD   5
 UBDSV1 SAVING "FLOW FRONT FACE " ON UNIT  53 AT TIME STEP 30, STRESS PERIOD   5
 UBDSV1 SAVING "FLOW LOWER FACE " ON UNIT  53 AT TIME STEP 30, STRESS PERIOD   5
1
              HEAD IN LAYER   1 AT END OF TIME STEP  30 IN STRESS PERIOD    5
  ---------------------------------------------------------------------------

            1           2           3           4           5           6           7           8           9          10
 ........................................................................................................................
   1    9.997       8.936       7.857       6.769       5.690       4.625       3.550       2.431       1.247      1.7232E-03
   2    9.997       8.902       7.785       6.662       5.564       4.510       3.465       2.378       1.222      1.6868E-03
   3    9.997       8.844       7.661       6.472       5.336       4.304       3.316       2.288       1.181      1.6272E-03
   4    9.997       8.786       7.533       6.266       5.082       4.080       3.162       2.200       1.142      1.5703E-03
   5    9.997       8.762       7.478       6.172       4.961       3.979       3.097       2.165       1.128      1.5500E-03
   6    9.997       8.796       7.553       6.294       5.114       4.112       3.189       2.219       1.153      1.5857E-03
   7    9.997       8.868       7.706       6.533       5.406       4.373       3.375       2.331       1.204      1.6606E-03
   8    9.997       8.943       7.863       6.768       5.685       4.628       3.566       2.451       1.261      1.7431E-03
   9    9.998       9.000       7.979       6.937       5.882       4.812       3.707       2.542       1.305      1.8085E-03
  10    9.998       9.030       8.039       7.023       5.980       4.905       3.780       2.591       1.329      1.8439E-03
1
              HEAD IN LAYER   2 AT END OF TIME STEP  30 IN STRESS PERIOD    5
  ---------------------------------------------------------------------------

            1           2           3           4           5           6           7           8           9          10
 ........................................................................................................................
   1    9.997       8.933       7.852       6.764       5.684       4.619       3.544       2.425       1.243      3.4160E-03
   2    9.997       8.900       7.782       6.659       5.561       4.506       3.460       2.373       1.219      3.3485E-03
   3    9.997       8.842       7.661       6.474       5.340       4.305       3.314       2.285       1.178      3.2370E-03
   4    9.997       8.785       7.536       6.276       5.098       4.090       3.164       2.198       1.140      3.1307E-03
   5    9.997       8.763       7.484       6.189       4.985       3.995       3.102       2.165       1.126      3.0929E-03
   6    9.997       8.796       7.557       6.305       5.130       4.122       3.191       2.218       1.150      3.1600E-03
   7    9.997       8.866       7.706       6.536       5.410       4.374       3.373       2.328       1.201      3.3001E-03
   8    9.997       8.940       7.860       6.765       5.682       4.624       3.561       2.446       1.257      3.4545E-03
   9    9.998       8.997       7.975       6.932       5.875       4.805       3.701       2.537       1.302      3.5767E-03
  10    9.998       9.026       8.034       7.016       5.973       4.897       3.773       2.585       1.325      3.6423E-03
1
              HEAD IN LAYER   3 AT END OF TIME STEP  30 IN STRESS PERIOD    5
  ---------------------------------------------------------------------------

            1           2           3           4           5           6           7           8           9          10
 ........................................................................................................................
   1    9.997       8.931       7.849       6.760       5.679       4.614       3.538       2.420       1.240      3.6769E-03
   2    9.997       8.898       7.780       6.657       5.559       4.503       3.455       2.368       1.216      3.6050E-03
   3    9.997       8.841       7.660       6.476       5.343       4.306       3.312       2.281       1.176      3.4864E-03
   4    9.997       8.785       7.539       6.284       5.110       4.099       3.166       2.196       1.138      3.3737E-03
   5    9.997       8.764       7.489       6.201       5.004       4.008       3.106       2.164       1.124      3.3339E-03
   6    9.997       8.796       7.560       6.313       5.142       4.131       3.193       2.216       1.148      3.4052E-03
   7    9.997       8.865       7.706       6.537       5.413       4.376       3.372       2.325       1.199      3.5544E-03
   8    9.997       8.938       7.858       6.763       5.680       4.621       3.556       2.441       1.254      3.7189E-03
   9    9.997       8.995       7.971       6.928       5.871       4.800       3.695       2.532       1.298      3.8495E-03
  10    9.998       9.024       8.030       7.012       5.967       4.891       3.768       2.580       1.322      3.9197E-03
1
              HEAD IN LAYER   4 AT END OF TIME STEP  30 IN STRESS PERIOD    5
  ---------------------------------------------------------------------------

            1           2           3           4           5           6           7           8           9          10
 ........................................................................................................................
   1    9.997       8.930       7.847       6.758       5.677       4.611       3.536       2.418       1.238      3.7002E-03
   2    9.997       8.897       7.779       6.656       5.558       4.501       3.453       2.366       1.214      3.6281E-03
   3    9.997       8.841       7.660       6.477       5.345       4.307       3.311       2.280       1.174      3.5093E-03
   4    9.997       8.785       7.540       6.288       5.116       4.103       3.167       2.195       1.137      3.3966E-03
   5    9.997       8.764       7.491       6.207       5.013       4.014       3.109       2.164       1.123      3.3570E-03
   6    9.997       8.796       7.561       6.317       5.148       4.135       3.195       2.216       1.147      3.4284E-03
   7    9.997       8.865       7.706       6.538       5.415       4.376       3.371       2.323       1.197      3.5778E-03
   8    9.997       8.938       7.857       6.762       5.678       4.620       3.554       2.439       1.252      3.7429E-03
   9    9.997       8.994       7.970       6.926       5.868       4.797       3.693       2.529       1.296      3.8740E-03
  10    9.998       9.023       8.028       7.009       5.965       4.888       3.765       2.577       1.320      3.9446E-03

 HEAD WILL BE SAVED ON UNIT   51 AT END OF TIME STEP   30, STRESS PERIOD    5

 DRAWDOWN WILL BE SAVED ON UNIT   52 AT END OF TIME STEP   30, STRESS PERIOD    5
1
  VOLUMETRIC BUDGET FOR ENTIRE MODEL AT END OF TIME STEP   30, STRESS PERIOD   5
  ------------------------------------------------------------------------------

     CUMULATIVE VOLUMES      L**3       RATES FOR THIS TIME STEP      L**3/T
     ------------------                 ------------------------

           IN:                                      IN:
           ---                                      ---
             STORAGE =      530138.3750               STORAGE =         159.3924
       CONSTANT HEAD =           0.0000         CONSTANT HEAD =           0.0000
               WELLS =           0.0000                 WELLS =           0.0000
     HEAD DEP BOUNDS =      100943.0156       HEAD DEP BOUNDS =         661.0881

            TOTAL IN =      631081.3750              TOTAL IN =         820.4805

          OUT:                                     OUT:
          ----                                     ----
             STORAGE =        8899.7754               STORAGE =         209.2709
       CONSTANT HEAD =           0.0000         CONSTANT HEAD =           0.0000
               WELLS =      100000.0000                 WELLS =           0.0000
     HEAD DEP BOUNDS =      522183.4375       HEAD DEP BOUNDS =         611.2008

           TOTAL OUT =      631083.1875             TOTAL OUT =         820.4717

            IN - OUT =          -1.8125              IN - OUT =       8.7891E-03

 PERCENT DISCREPANCY =          -0.00     PERCENT DISCREPANCY =           0.00






         TIME SUMMARY AT END OF TIME STEP   30 IN STRESS PERIOD    5
                    SECONDS     MINUTES      HOURS       DAYS        YEARS
                    -----------------------------------------------------------
   TIME STEP LENGTH  86400.      1440.0      24.000      1.0000     2.73785E-03
 STRESS PERIOD TIME 2.59200E+06  43200.      720.00      30.000     8.21355E-02
         TOTAL TIME 2.85984E+07 4.76640E+05  7944.0      331.00     0.90623    
1
 
 SOLVING FOR HEAD 

 OUTPUT CONTROL FOR STRESS PERIOD    5   TIME STEP   31
    SAVE HEAD FOR ALL LAYERS
    SAVE DRAWDOWN FOR ALL LAYERS
    SAVE BUDGET
    PRINT HEAD FOR ALL LAYERS
    PRINT BUDGET
 UBDSV1 SAVING "         STORAGE" ON UNIT  53 AT TIME STEP 31, STRESS PERIOD   5
 UBDSV2 SAVING "   CONSTANT HEAD" ON UNIT  53 AT TIME STEP 31, STRESS PERIOD   5
 UBDSV1 SAVING "FLOW RIGHT FACE " ON UNIT  53 AT TIME STEP 31, STRESS PERIOD   5
 UBDSV1 SAVING "FLOW FRONT FACE " ON UNIT  53 AT TIME STEP 31, STRESS PERIOD   5
 UBDSV1 SAVING "FLOW LOWER FACE " ON UNIT  53 AT TIME STEP 31, STRESS PERIOD   5
1
              HEAD IN LAYER   1 AT END OF TIME STEP  31 IN STRESS PERIOD    5
  ---------------------------------------------------------------------------

            1           2           3           4           5           6           7           8           9          10
 ........................................................................................................................
   1    9.997       8.935       7.854       6.765       5.685       4.620       3.545       2.426       1.245      1.7195E-03
   2    9.997       8.901       7.784       6.661       5.562       4.507       3.461       2.374       1.220      1.6836E-03
   3    9.997       8.844       7.662       6.475       5.341       4.306       3.315       2.286       1.180      1.6245E-03
   4    9.997       8.787       7.538       6.277       5.098       4.091       3.165       2.199       1.141      1.5684E-03
   5    9.997       8.765       7.486       6.189       4.985       3.995       3.103       2.166       1.127      1.5485E-03
   6    9.997       8.798       7.558       6.306       5.131       4.123       3.192       2.219       1.152      1.5839E-03
   7    9.997       8.868       7.708       6.537       5.411       4.375       3.374       2.329       1.203      1.6579E-03
   8    9.997       8.942       7.861       6.767       5.683       4.626       3.562       2.447       1.259      1.7399E-03
   9    9.998       8.998       7.976       6.933       5.877       4.807       3.702       2.538       1.303      1.8051E-03
  10    9.998       9.028       8.035       7.018       5.974       4.898       3.775       2.586       1.327      1.8402E-03
1
              HEAD IN LAYER   2 AT END OF TIME STEP  31 IN STRESS PERIOD    5
  ---------------------------------------------------------------------------

            1           2           3           4           5           6           7           8           9          10
 ........................................................................................................................
   1    9.997       8.932       7.849       6.760       5.680       4.614       3.539       2.421       1.241      3.4092E-03
   2    9.997       8.898       7.780       6.658       5.559       4.503       3.456       2.369       1.217      3.3422E-03
   3    9.997       8.842       7.662       6.478       5.345       4.308       3.313       2.282       1.177      3.2320E-03
   4    9.997       8.787       7.541       6.288       5.113       4.101       3.167       2.197       1.139      3.1273E-03
   5    9.997       8.765       7.492       6.205       5.008       4.010       3.108       2.165       1.125      3.0904E-03
   6    9.997       8.798       7.562       6.316       5.146       4.133       3.195       2.217       1.149      3.1567E-03
   7    9.997       8.866       7.707       6.539       5.415       4.377       3.373       2.326       1.200      3.2954E-03
   8    9.997       8.939       7.858       6.764       5.680       4.622       3.557       2.442       1.255      3.4485E-03
   9    9.998       8.995       7.972       6.928       5.871       4.800       3.696       2.533       1.299      3.5701E-03
  10    9.998       9.024       8.030       7.012       5.967       4.891       3.768       2.581       1.323      3.6355E-03
1
              HEAD IN LAYER   3 AT END OF TIME STEP  31 IN STRESS PERIOD    5
  ---------------------------------------------------------------------------

            1           2           3           4           5           6           7           8           9          10
 ........................................................................................................................
   1    9.997       8.930       7.846       6.756       5.675       4.609       3.533       2.416       1.237      3.6697E-03
   2    9.997       8.897       7.778       6.655       5.557       4.500       3.452       2.365       1.213      3.5984E-03
   3    9.997       8.841       7.662       6.479       5.348       4.309       3.311       2.279       1.174      3.4811E-03
   4    9.997       8.787       7.544       6.295       5.125       4.109       3.170       2.196       1.136      3.3702E-03
   5    9.997       8.766       7.496       6.216       5.026       4.023       3.112       2.165       1.123      3.3314E-03
   6    9.997       8.798       7.565       6.324       5.157       4.141       3.197       2.216       1.147      3.4018E-03
   7    9.997       8.865       7.707       6.541       5.419       4.379       3.371       2.323       1.197      3.5494E-03
   8    9.997       8.937       7.856       6.762       5.678       4.619       3.553       2.438       1.252      3.7126E-03
   9    9.997       8.993       7.968       6.924       5.866       4.795       3.690       2.528       1.296      3.8425E-03
  10    9.998       9.022       8.027       7.007       5.962       4.885       3.762       2.575       1.319      3.9124E-03
1
              HEAD IN LAYER   4 AT END OF TIME STEP  31 IN STRESS PERIOD    5
  ---------------------------------------------------------------------------

            1           2           3           4           5           6           7           8           9          10
 ........................................................................................................................
   1    9.997       8.929       7.844       6.754       5.673       4.606       3.531       2.414       1.236      3.6930E-03
   2    9.997       8.896       7.777       6.654       5.556       4.498       3.450       2.363       1.212      3.6215E-03
   3    9.997       8.841       7.662       6.480       5.350       4.310       3.311       2.278       1.173      3.5041E-03
   4    9.997       8.787       7.545       6.299       5.131       4.113       3.171       2.195       1.135      3.3932E-03
   5    9.997       8.766       7.498       6.222       5.034       4.029       3.115       2.164       1.122      3.3546E-03
   6    9.997       8.798       7.566       6.328       5.163       4.145       3.198       2.215       1.146      3.4251E-03
   7    9.997       8.865       7.707       6.542       5.420       4.379       3.370       2.321       1.196      3.5729E-03
   8    9.997       8.937       7.855       6.761       5.677       4.617       3.551       2.436       1.250      3.7366E-03
   9    9.997       8.992       7.967       6.922       5.864       4.793       3.688       2.525       1.294      3.8670E-03
  10    9.998       9.021       8.025       7.005       5.959       4.882       3.759       2.573       1.318      3.9373E-03

 HEAD WILL BE SAVED ON UNIT   51 AT END OF TIME STEP   31, STRESS PERIOD    5

 DRAWDOWN WILL BE SAVED ON UNIT   52 AT END OF TIME STEP   31, STRESS PERIOD    5
1
  VOLUMETRIC BUDGET FOR ENTIRE MODEL AT END OF TIME STEP   31, STRESS PERIOD   5
  ------------------------------------------------------------------------------

     CUMULATIVE VOLUMES      L**3       RATES FOR THIS TIME STEP      L**3/T
     ------------------                 ------------------------

           IN:                                      IN:
           ---                                      ---
             STORAGE =      530292.4375               STORAGE =         154.0776
       CONSTANT HEAD =           0.0000         CONSTANT HEAD =           0.0000
               WELLS =           0.0000                 WELLS =           0.0000
     HEAD DEP BOUNDS =      101604.2031       HEAD DEP BOUNDS =         661.1903

            TOTAL IN =      631896.6250              TOTAL IN =         815.2679

          OUT:                                     OUT:
          ----                                     ----
             STORAGE =        9104.7764               STORAGE =         205.0006
       CONSTANT HEAD =           0.0000         CONSTANT HEAD =           0.0000
               WELLS =      100000.0000                 WELLS =           0.0000
     HEAD DEP BOUNDS =      522793.7188       HEAD DEP BOUNDS =         610.2670

           TOTAL OUT =      631898.5000             TOTAL OUT =         815.2676

            IN - OUT =          -1.8750              IN - OUT =       3.0518E-04

 PERCENT DISCREPANCY =          -0.00     PERCENT DISCREPANCY =           0.00






         TIME SUMMARY AT END OF TIME STEP   31 IN STRESS PERIOD    5
                    SECONDS     MINUTES      HOURS       DAYS        YEARS
                    -----------------------------------------------------------
   TIME STEP LENGTH  86400.      1440.0      24.000      1.0000     2.73785E-03
 STRESS PERIOD TIME 2.67840E+06  44640.      744.00      31.000     8.48734E-02
         TOTAL TIME 2.86848E+07 4.78080E+05  7968.0      332.00     0.90897    
1
 
 SOLVING FOR HEAD 

 OUTPUT CONTROL FOR STRESS PERIOD    5   TIME STEP   32
    SAVE HEAD FOR ALL LAYERS
    SAVE DRAWDOWN FOR ALL LAYERS
    SAVE BUDGET
    PRINT HEAD FOR ALL LAYERS
    PRINT BUDGET
 UBDSV1 SAVING "         STORAGE" ON UNIT  53 AT TIME STEP 32, STRESS PERIOD   5
 UBDSV2 SAVING "   CONSTANT HEAD" ON UNIT  53 AT TIME STEP 32, STRESS PERIOD   5
 UBDSV1 SAVING "FLOW RIGHT FACE " ON UNIT  53 AT TIME STEP 32, STRESS PERIOD   5
 UBDSV1 SAVING "FLOW FRONT FACE " ON UNIT  53 AT TIME STEP 32, STRESS PERIOD   5
 UBDSV1 SAVING "FLOW LOWER FACE " ON UNIT  53 AT TIME STEP 32, STRESS PERIOD   5
1
              HEAD IN LAYER   1 AT END OF TIME STEP  32 IN STRESS PERIOD    5
  ---------------------------------------------------------------------------

            1           2           3           4           5           6           7           8           9          10
 ........................................................................................................................
   1    9.997       8.933       7.851       6.761       5.681       4.615       3.540       2.422       1.242      1.7158E-03
   2    9.997       8.900       7.782       6.659       5.561       4.504       3.457       2.370       1.218      1.6802E-03
   3    9.997       8.844       7.663       6.479       5.346       4.309       3.314       2.283       1.178      1.6218E-03
   4    9.997       8.788       7.543       6.289       5.114       4.102       3.168       2.198       1.140      1.5666E-03
   5    9.997       8.767       7.493       6.205       5.008       4.011       3.109       2.166       1.126      1.5473E-03
   6    9.997       8.799       7.563       6.317       5.146       4.134       3.196       2.218       1.150      1.5822E-03
   7    9.997       8.868       7.709       6.541       5.416       4.378       3.374       2.327       1.201      1.6554E-03
   8    9.997       8.940       7.860       6.765       5.682       4.623       3.558       2.443       1.256      1.7367E-03
   9    9.998       8.996       7.973       6.929       5.872       4.802       3.697       2.534       1.301      1.8016E-03
  10    9.998       9.026       8.032       7.013       5.969       4.892       3.769       2.582       1.324      1.8366E-03
1
              HEAD IN LAYER   2 AT END OF TIME STEP  32 IN STRESS PERIOD    5
  ---------------------------------------------------------------------------

            1           2           3           4           5           6           7           8           9          10
 ........................................................................................................................
   1    9.997       8.930       7.846       6.756       5.675       4.609       3.534       2.417       1.238      3.4024E-03
   2    9.997       8.897       7.779       6.656       5.558       4.501       3.452       2.366       1.214      3.3361E-03
   3    9.997       8.842       7.663       6.481       5.350       4.311       3.312       2.280       1.175      3.2271E-03
   4    9.997       8.788       7.546       6.298       5.128       4.111       3.171       2.197       1.137      3.1241E-03
   5    9.997       8.768       7.499       6.220       5.029       4.026       3.114       2.166       1.124      3.0881E-03
   6    9.997       8.799       7.567       6.327       5.161       4.143       3.199       2.217       1.148      3.1536E-03
   7    9.997       8.866       7.709       6.543       5.421       4.380       3.372       2.324       1.198      3.2907E-03
   8    9.997       8.938       7.857       6.763       5.679       4.619       3.554       2.439       1.253      3.4427E-03
   9    9.997       8.993       7.969       6.924       5.867       4.795       3.691       2.529       1.297      3.5636E-03
  10    9.998       9.023       8.027       7.007       5.962       4.885       3.762       2.576       1.320      3.6288E-03
1
              HEAD IN LAYER   3 AT END OF TIME STEP  32 IN STRESS PERIOD    5
  ---------------------------------------------------------------------------

            1           2           3           4           5           6           7           8           9          10
 ........................................................................................................................
   1    9.997       8.928       7.843       6.752       5.671       4.604       3.529       2.412       1.235      3.6625E-03
   2    9.997       8.896       7.777       6.654       5.556       4.498       3.448       2.361       1.211      3.5919E-03
   3    9.997       8.842       7.663       6.483       5.353       4.312       3.311       2.277       1.172      3.4761E-03
   4    9.997       8.789       7.549       6.306       5.140       4.119       3.173       2.195       1.135      3.3669E-03
   5    9.997       8.768       7.503       6.231       5.046       4.038       3.118       2.165       1.123      3.3291E-03
   6    9.997       8.799       7.570       6.334       5.172       4.151       3.201       2.216       1.146      3.3987E-03
   7    9.997       8.865       7.709       6.545       5.424       4.382       3.371       2.321       1.195      3.5446E-03
   8    9.997       8.937       7.855       6.761       5.677       4.617       3.550       2.435       1.250      3.7065E-03
   9    9.997       8.991       7.966       6.920       5.862       4.790       3.686       2.524       1.293      3.8356E-03
  10    9.998       9.020       8.023       7.002       5.956       4.879       3.757       2.571       1.317      3.9052E-03
1
              HEAD IN LAYER   4 AT END OF TIME STEP  32 IN STRESS PERIOD    5
  ---------------------------------------------------------------------------

            1           2           3           4           5           6           7           8           9          10
 ........................................................................................................................
   1    9.997       8.927       7.842       6.751       5.669       4.602       3.526       2.409       1.233      3.6858E-03
   2    9.997       8.895       7.776       6.653       5.555       4.496       3.446       2.359       1.210      3.6151E-03
   3    9.997       8.841       7.663       6.484       5.355       4.313       3.310       2.276       1.171      3.4991E-03
   4    9.997       8.789       7.550       6.310       5.145       4.123       3.174       2.195       1.134      3.3900E-03
   5    9.997       8.769       7.506       6.237       5.054       4.044       3.121       2.165       1.122      3.3524E-03
   6    9.997       8.800       7.571       6.338       5.178       4.155       3.202       2.215       1.145      3.4220E-03
   7    9.997       8.865       7.709       6.546       5.426       4.382       3.370       2.319       1.194      3.5681E-03
   8    9.997       8.936       7.854       6.760       5.676       4.615       3.548       2.433       1.248      3.7305E-03
   9    9.997       8.991       7.964       6.918       5.860       4.788       3.683       2.521       1.292      3.8601E-03
  10    9.998       9.019       8.021       7.000       5.954       4.877       3.754       2.569       1.315      3.9301E-03

 HEAD WILL BE SAVED ON UNIT   51 AT END OF TIME STEP   32, STRESS PERIOD    5

 DRAWDOWN WILL BE SAVED ON UNIT   52 AT END OF TIME STEP   32, STRESS PERIOD    5
1
  VOLUMETRIC BUDGET FOR ENTIRE MODEL AT END OF TIME STEP   32, STRESS PERIOD   5
  ------------------------------------------------------------------------------

     CUMULATIVE VOLUMES      L**3       RATES FOR THIS TIME STEP      L**3/T
     ------------------                 ------------------------

           IN:                                      IN:
           ---                                      ---
             STORAGE =      530441.3750               STORAGE =         148.9562
       CONSTANT HEAD =           0.0000         CONSTANT HEAD =           0.0000
               WELLS =           0.0000                 WELLS =           0.0000
     HEAD DEP BOUNDS =      102265.4766       HEAD DEP BOUNDS =         661.2749

            TOTAL IN =      632706.8750              TOTAL IN =         810.2311

          OUT:                                     OUT:
          ----                                     ----
             STORAGE =        9305.6436               STORAGE =         200.8668
       CONSTANT HEAD =           0.0000         CONSTANT HEAD =           0.0000
               WELLS =      100000.0000                 WELLS =           0.0000
     HEAD DEP BOUNDS =      523403.0625       HEAD DEP BOUNDS =         609.3591

           TOTAL OUT =      632708.6875             TOTAL OUT =         810.2259

            IN - OUT =          -1.8125              IN - OUT =       5.2490E-03

 PERCENT DISCREPANCY =          -0.00     PERCENT DISCREPANCY =           0.00






         TIME SUMMARY AT END OF TIME STEP   32 IN STRESS PERIOD    5
                    SECONDS     MINUTES      HOURS       DAYS        YEARS
                    -----------------------------------------------------------
   TIME STEP LENGTH  86400.      1440.0      24.000      1.0000     2.73785E-03
 STRESS PERIOD TIME 2.76480E+06  46080.      768.00      32.000     8.76112E-02
         TOTAL TIME 2.87712E+07 4.79520E+05  7992.0      333.00     0.91170    
1
 
 SOLVING FOR HEAD 

 OUTPUT CONTROL FOR STRESS PERIOD    5   TIME STEP   33
    SAVE HEAD FOR ALL LAYERS
    SAVE DRAWDOWN FOR ALL LAYERS
    SAVE BUDGET
    PRINT HEAD FOR ALL LAYERS
    PRINT BUDGET
 UBDSV1 SAVING "         STORAGE" ON UNIT  53 AT TIME STEP 33, STRESS PERIOD   5
 UBDSV2 SAVING "   CONSTANT HEAD" ON UNIT  53 AT TIME STEP 33, STRESS PERIOD   5
 UBDSV1 SAVING "FLOW RIGHT FACE " ON UNIT  53 AT TIME STEP 33, STRESS PERIOD   5
 UBDSV1 SAVING "FLOW FRONT FACE " ON UNIT  53 AT TIME STEP 33, STRESS PERIOD   5
 UBDSV1 SAVING "FLOW LOWER FACE " ON UNIT  53 AT TIME STEP 33, STRESS PERIOD   5
1
              HEAD IN LAYER   1 AT END OF TIME STEP  33 IN STRESS PERIOD    5
  ---------------------------------------------------------------------------

            1           2           3           4           5           6           7           8           9          10
 ........................................................................................................................
   1    9.997       8.931       7.848       6.758       5.677       4.610       3.535       2.418       1.240      1.7122E-03
   2    9.997       8.899       7.780       6.658       5.559       4.502       3.453       2.367       1.216      1.6770E-03
   3    9.997       8.844       7.665       6.483       5.351       4.312       3.314       2.281       1.176      1.6193E-03
   4    9.997       8.790       7.548       6.299       5.129       4.112       3.172       2.198       1.139      1.5649E-03
   5    9.997       8.769       7.500       6.221       5.030       4.026       3.115       2.167       1.125      1.5460E-03
   6    9.997       8.801       7.569       6.328       5.161       4.144       3.200       2.218       1.149      1.5805E-03
   7    9.997       8.868       7.710       6.545       5.422       4.381       3.373       2.325       1.199      1.6530E-03
   8    9.997       8.939       7.858       6.764       5.681       4.621       3.555       2.440       1.254      1.7336E-03
   9    9.998       8.995       7.970       6.926       5.868       4.797       3.692       2.530       1.298      1.7981E-03
  10    9.998       9.024       8.028       7.008       5.963       4.887       3.764       2.577       1.322      1.8330E-03
1
              HEAD IN LAYER   2 AT END OF TIME STEP  33 IN STRESS PERIOD    5
  ---------------------------------------------------------------------------

            1           2           3           4           5           6           7           8           9          10
 ........................................................................................................................
   1    9.997       8.929       7.844       6.753       5.671       4.604       3.529       2.412       1.236      3.3958E-03
   2    9.997       8.896       7.777       6.655       5.557       4.498       3.449       2.362       1.212      3.3301E-03
   3    9.997       8.843       7.665       6.485       5.355       4.314       3.312       2.278       1.173      3.2225E-03
   4    9.997       8.790       7.551       6.309       5.143       4.122       3.175       2.196       1.136      3.1211E-03
   5    9.997       8.770       7.506       6.235       5.050       4.040       3.120       2.166       1.124      3.0860E-03
   6    9.997       8.801       7.572       6.338       5.175       4.154       3.202       2.217       1.147      3.1507E-03
   7    9.997       8.866       7.710       6.547       5.426       4.383       3.372       2.322       1.196      3.2863E-03
   8    9.997       8.937       7.856       6.762       5.678       4.617       3.550       2.435       1.251      3.4370E-03
   9    9.997       8.992       7.966       6.920       5.862       4.790       3.686       2.524       1.295      3.5572E-03
  10    9.998       9.021       8.023       7.002       5.956       4.879       3.757       2.572       1.318      3.6221E-03
1
              HEAD IN LAYER   3 AT END OF TIME STEP  33 IN STRESS PERIOD    5
  ---------------------------------------------------------------------------

            1           2           3           4           5           6           7           8           9          10
 ........................................................................................................................
   1    9.997       8.927       7.841       6.749       5.667       4.599       3.524       2.408       1.233      3.6555E-03
   2    9.997       8.895       7.775       6.653       5.555       4.495       3.445       2.358       1.209      3.5856E-03
   3    9.997       8.842       7.665       6.487       5.359       4.315       3.311       2.275       1.171      3.4712E-03
   4    9.997       8.790       7.554       6.317       5.153       4.129       3.177       2.195       1.134      3.3639E-03
   5    9.997       8.771       7.511       6.246       5.066       4.052       3.124       2.166       1.122      3.3271E-03
   6    9.997       8.801       7.575       6.345       5.186       4.161       3.204       2.215       1.145      3.3958E-03
   7    9.997       8.866       7.710       6.549       5.429       4.385       3.371       2.319       1.194      3.5399E-03
   8    9.997       8.936       7.854       6.760       5.676       4.614       3.547       2.431       1.248      3.7005E-03
   9    9.997       8.990       7.963       6.917       5.858       4.785       3.681       2.520       1.291      3.8288E-03
  10    9.998       9.019       8.020       6.998       5.951       4.874       3.751       2.567       1.314      3.8981E-03
1
              HEAD IN LAYER   4 AT END OF TIME STEP  33 IN STRESS PERIOD    5
  ---------------------------------------------------------------------------

            1           2           3           4           5           6           7           8           9          10
 ........................................................................................................................
   1    9.997       8.925       7.839       6.747       5.665       4.597       3.521       2.405       1.231      3.6788E-03
   2    9.997       8.894       7.774       6.652       5.554       4.494       3.443       2.356       1.208      3.6088E-03
   3    9.997       8.841       7.665       6.488       5.360       4.316       3.310       2.274       1.169      3.4943E-03
   4    9.997       8.790       7.556       6.320       5.159       4.133       3.178       2.195       1.133      3.3870E-03
   5    9.997       8.771       7.513       6.251       5.073       4.058       3.126       2.166       1.121      3.3504E-03
   6    9.997       8.801       7.577       6.349       5.191       4.165       3.206       2.215       1.144      3.4192E-03
   7    9.997       8.865       7.710       6.550       5.431       4.385       3.370       2.317       1.192      3.5636E-03
   8    9.997       8.935       7.853       6.759       5.675       4.613       3.545       2.429       1.246      3.7245E-03
   9    9.997       8.989       7.961       6.915       5.856       4.783       3.678       2.517       1.289      3.8533E-03
  10    9.998       9.018       8.018       6.995       5.948       4.871       3.748       2.564       1.313      3.9229E-03

 HEAD WILL BE SAVED ON UNIT   51 AT END OF TIME STEP   33, STRESS PERIOD    5

 DRAWDOWN WILL BE SAVED ON UNIT   52 AT END OF TIME STEP   33, STRESS PERIOD    5
1
  VOLUMETRIC BUDGET FOR ENTIRE MODEL AT END OF TIME STEP   33, STRESS PERIOD   5
  ------------------------------------------------------------------------------

     CUMULATIVE VOLUMES      L**3       RATES FOR THIS TIME STEP      L**3/T
     ------------------                 ------------------------

           IN:                                      IN:
           ---                                      ---
             STORAGE =      530585.3750               STORAGE =         144.0256
       CONSTANT HEAD =           0.0000         CONSTANT HEAD =           0.0000
               WELLS =           0.0000                 WELLS =           0.0000
     HEAD DEP BOUNDS =      102926.7891       HEAD DEP BOUNDS =         661.3127

            TOTAL IN =      633512.1875              TOTAL IN =         805.3383

          OUT:                                     OUT:
          ----                                     ----
             STORAGE =        9502.5010               STORAGE =         196.8576
       CONSTANT HEAD =           0.0000         CONSTANT HEAD =           0.0000
               WELLS =      100000.0000                 WELLS =           0.0000
     HEAD DEP BOUNDS =      524011.5312       HEAD DEP BOUNDS =         608.4781

           TOTAL OUT =      633514.0000             TOTAL OUT =         805.3358

            IN - OUT =          -1.8125              IN - OUT =       2.5635E-03

 PERCENT DISCREPANCY =          -0.00     PERCENT DISCREPANCY =           0.00






         TIME SUMMARY AT END OF TIME STEP   33 IN STRESS PERIOD    5
                    SECONDS     MINUTES      HOURS       DAYS        YEARS
                    -----------------------------------------------------------
   TIME STEP LENGTH  86400.      1440.0      24.000      1.0000     2.73785E-03
 STRESS PERIOD TIME 2.85120E+06  47520.      792.00      33.000     9.03491E-02
         TOTAL TIME 2.88576E+07 4.80960E+05  8016.0      334.00     0.91444    
1
 
 SOLVING FOR HEAD 

 OUTPUT CONTROL FOR STRESS PERIOD    5   TIME STEP   34
    SAVE HEAD FOR ALL LAYERS
    SAVE DRAWDOWN FOR ALL LAYERS
    SAVE BUDGET
    PRINT HEAD FOR ALL LAYERS
    PRINT BUDGET
 UBDSV1 SAVING "         STORAGE" ON UNIT  53 AT TIME STEP 34, STRESS PERIOD   5
 UBDSV2 SAVING "   CONSTANT HEAD" ON UNIT  53 AT TIME STEP 34, STRESS PERIOD   5
 UBDSV1 SAVING "FLOW RIGHT FACE " ON UNIT  53 AT TIME STEP 34, STRESS PERIOD   5
 UBDSV1 SAVING "FLOW FRONT FACE " ON UNIT  53 AT TIME STEP 34, STRESS PERIOD   5
 UBDSV1 SAVING "FLOW LOWER FACE " ON UNIT  53 AT TIME STEP 34, STRESS PERIOD   5
1
              HEAD IN LAYER   1 AT END OF TIME STEP  34 IN STRESS PERIOD    5
  ---------------------------------------------------------------------------

            1           2           3           4           5           6           7           8           9          10
 ........................................................................................................................
   1    9.997       8.930       7.845       6.754       5.673       4.606       3.530       2.414       1.237      1.7086E-03
   2    9.997       8.898       7.779       6.656       5.558       4.500       3.450       2.363       1.213      1.6739E-03
   3    9.997       8.844       7.666       6.486       5.357       4.315       3.313       2.279       1.174      1.6168E-03
   4    9.997       8.792       7.553       6.310       5.143       4.123       3.176       2.197       1.137      1.5635E-03
   5    9.997       8.772       7.508       6.236       5.050       4.041       3.121       2.167       1.125      1.5450E-03
   6    9.997       8.802       7.574       6.339       5.176       4.155       3.203       2.218       1.148      1.5790E-03
   7    9.997       8.868       7.712       6.548       5.427       4.384       3.373       2.323       1.197      1.6506E-03
   8    9.997       8.939       7.857       6.763       5.679       4.619       3.552       2.437       1.252      1.7306E-03
   9    9.998       8.993       7.967       6.922       5.864       4.792       3.687       2.526       1.296      1.7946E-03
  10    9.998       9.022       8.025       7.004       5.958       4.881       3.758       2.573       1.319      1.8294E-03
1
              HEAD IN LAYER   2 AT END OF TIME STEP  34 IN STRESS PERIOD    5
  ---------------------------------------------------------------------------

            1           2           3           4           5           6           7           8           9          10
 ........................................................................................................................
   1    9.997       8.927       7.841       6.749       5.667       4.600       3.524       2.408       1.234      3.3893E-03
   2    9.997       8.896       7.776       6.654       5.556       4.496       3.445       2.359       1.210      3.3243E-03
   3    9.997       8.843       7.666       6.489       5.361       4.316       3.312       2.276       1.172      3.2180E-03
   4    9.997       8.792       7.557       6.320       5.157       4.132       3.178       2.196       1.135      3.1183E-03
   5    9.997       8.772       7.513       6.249       5.069       4.055       3.126       2.167       1.123      3.0841E-03
   6    9.997       8.803       7.578       6.348       5.189       4.164       3.206       2.216       1.146      3.1480E-03
   7    9.997       8.867       7.712       6.551       5.431       4.386       3.372       2.320       1.195      3.2820E-03
   8    9.997       8.936       7.854       6.761       5.677       4.615       3.547       2.432       1.249      3.4314E-03
   9    9.997       8.990       7.963       6.917       5.858       4.786       3.681       2.520       1.292      3.5509E-03
  10    9.998       9.019       8.020       6.997       5.951       4.874       3.751       2.568       1.316      3.6155E-03
1
              HEAD IN LAYER   3 AT END OF TIME STEP  34 IN STRESS PERIOD    5
  ---------------------------------------------------------------------------

            1           2           3           4           5           6           7           8           9          10
 ........................................................................................................................
   1    9.997       8.925       7.838       6.746       5.663       4.595       3.519       2.404       1.230      3.6486E-03
   2    9.997       8.894       7.774       6.652       5.554       4.493       3.442       2.355       1.207      3.5794E-03
   3    9.997       8.842       7.666       6.491       5.364       4.318       3.310       2.273       1.169      3.4666E-03
   4    9.997       8.792       7.559       6.327       5.167       4.139       3.180       2.195       1.133      3.3610E-03
   5    9.997       8.773       7.518       6.260       5.084       4.066       3.130       2.167       1.121      3.3252E-03
   6    9.997       8.803       7.580       6.355       5.200       4.171       3.208       2.215       1.144      3.3930E-03
   7    9.997       8.866       7.712       6.553       5.435       4.388       3.371       2.317       1.192      3.5355E-03
   8    9.997       8.935       7.852       6.759       5.675       4.612       3.543       2.428       1.246      3.6946E-03
   9    9.997       8.988       7.960       6.913       5.854       4.781       3.676       2.516       1.289      3.8221E-03
  10    9.998       9.017       8.016       6.993       5.945       4.868       3.746       2.563       1.312      3.8911E-03
1
              HEAD IN LAYER   4 AT END OF TIME STEP  34 IN STRESS PERIOD    5
  ---------------------------------------------------------------------------

            1           2           3           4           5           6           7           8           9          10
 ........................................................................................................................
   1    9.997       8.924       7.837       6.744       5.661       4.593       3.517       2.401       1.229      3.6719E-03
   2    9.997       8.893       7.773       6.651       5.553       4.492       3.440       2.353       1.206      3.6027E-03
   3    9.997       8.842       7.666       6.492       5.365       4.319       3.310       2.272       1.168      3.4897E-03
   4    9.997       8.792       7.561       6.330       5.172       4.143       3.181       2.194       1.132      3.3842E-03
   5    9.997       8.773       7.520       6.265       5.092       4.071       3.132       2.167       1.120      3.3486E-03
   6    9.997       8.803       7.582       6.359       5.205       4.175       3.209       2.215       1.143      3.4165E-03
   7    9.997       8.866       7.712       6.554       5.436       4.389       3.370       2.316       1.191      3.5592E-03
   8    9.997       8.934       7.851       6.758       5.674       4.611       3.542       2.426       1.244      3.7186E-03
   9    9.997       8.987       7.958       6.911       5.852       4.778       3.674       2.514       1.287      3.8466E-03
  10    9.998       9.016       8.015       6.991       5.943       4.865       3.743       2.560       1.310      3.9159E-03

 HEAD WILL BE SAVED ON UNIT   51 AT END OF TIME STEP   34, STRESS PERIOD    5

 DRAWDOWN WILL BE SAVED ON UNIT   52 AT END OF TIME STEP   34, STRESS PERIOD    5
1
  VOLUMETRIC BUDGET FOR ENTIRE MODEL AT END OF TIME STEP   34, STRESS PERIOD   5
  ------------------------------------------------------------------------------

     CUMULATIVE VOLUMES      L**3       RATES FOR THIS TIME STEP      L**3/T
     ------------------                 ------------------------

           IN:                                      IN:
           ---                                      ---
             STORAGE =      530724.5625               STORAGE =         139.1986
       CONSTANT HEAD =           0.0000         CONSTANT HEAD =           0.0000
               WELLS =           0.0000                 WELLS =           0.0000
     HEAD DEP BOUNDS =      103588.1172       HEAD DEP BOUNDS =         661.3295

            TOTAL IN =      634312.6875              TOTAL IN =         800.5281

          OUT:                                     OUT:
          ----                                     ----
             STORAGE =        9695.4072               STORAGE =         192.9061
       CONSTANT HEAD =           0.0000         CONSTANT HEAD =           0.0000
               WELLS =      100000.0000                 WELLS =           0.0000
     HEAD DEP BOUNDS =      524619.1250       HEAD DEP BOUNDS =         607.6233

           TOTAL OUT =      634314.5000             TOTAL OUT =         800.5294

            IN - OUT =          -1.8125              IN - OUT =      -1.3428E-03

 PERCENT DISCREPANCY =          -0.00     PERCENT DISCREPANCY =          -0.00






         TIME SUMMARY AT END OF TIME STEP   34 IN STRESS PERIOD    5
                    SECONDS     MINUTES      HOURS       DAYS        YEARS
                    -----------------------------------------------------------
   TIME STEP LENGTH  86400.      1440.0      24.000      1.0000     2.73785E-03
 STRESS PERIOD TIME 2.93760E+06  48960.      816.00      34.000     9.30869E-02
         TOTAL TIME 2.89440E+07 4.82400E+05  8040.0      335.00     0.91718    
1
 
 SOLVING FOR HEAD 

 OUTPUT CONTROL FOR STRESS PERIOD    5   TIME STEP   35
    SAVE HEAD FOR ALL LAYERS
    SAVE DRAWDOWN FOR ALL LAYERS
    SAVE BUDGET
    PRINT HEAD FOR ALL LAYERS
    PRINT BUDGET
 UBDSV1 SAVING "         STORAGE" ON UNIT  53 AT TIME STEP 35, STRESS PERIOD   5
 UBDSV2 SAVING "   CONSTANT HEAD" ON UNIT  53 AT TIME STEP 35, STRESS PERIOD   5
 UBDSV1 SAVING "FLOW RIGHT FACE " ON UNIT  53 AT TIME STEP 35, STRESS PERIOD   5
 UBDSV1 SAVING "FLOW FRONT FACE " ON UNIT  53 AT TIME STEP 35, STRESS PERIOD   5
 UBDSV1 SAVING "FLOW LOWER FACE " ON UNIT  53 AT TIME STEP 35, STRESS PERIOD   5
1
              HEAD IN LAYER   1 AT END OF TIME STEP  35 IN STRESS PERIOD    5
  ---------------------------------------------------------------------------

            1           2           3           4           5           6           7           8           9          10
 ........................................................................................................................
   1    9.997       8.928       7.843       6.751       5.669       4.601       3.525       2.410       1.235      1.7052E-03
   2    9.997       8.897       7.778       6.655       5.557       4.497       3.447       2.360       1.211      1.6707E-03
   3    9.997       8.844       7.668       6.490       5.362       4.318       3.313       2.277       1.173      1.6144E-03
   4    9.997       8.793       7.558       6.321       5.157       4.132       3.179       2.197       1.136      1.5619E-03
   5    9.997       8.774       7.515       6.250       5.070       4.055       3.127       2.168       1.124      1.5440E-03
   6    9.997       8.804       7.579       6.349       5.190       4.165       3.207       2.218       1.147      1.5776E-03
   7    9.997       8.868       7.713       6.552       5.432       4.387       3.373       2.321       1.196      1.6484E-03
   8    9.997       8.938       7.856       6.762       5.678       4.616       3.548       2.433       1.250      1.7276E-03
   9    9.998       8.992       7.964       6.918       5.859       4.787       3.682       2.522       1.294      1.7913E-03
  10    9.998       9.020       8.021       6.999       5.952       4.875       3.753       2.569       1.317      1.8258E-03
1
              HEAD IN LAYER   2 AT END OF TIME STEP  35 IN STRESS PERIOD    5
  ---------------------------------------------------------------------------

            1           2           3           4           5           6           7           8           9          10
 ........................................................................................................................
   1    9.997       8.926       7.838       6.746       5.664       4.595       3.519       2.404       1.231      3.3829E-03
   2    9.997       8.895       7.775       6.653       5.555       4.494       3.442       2.355       1.208      3.3186E-03
   3    9.997       8.843       7.668       6.493       5.366       4.319       3.311       2.274       1.170      3.2137E-03
   4    9.997       8.793       7.562       6.330       5.170       4.141       3.182       2.196       1.134      3.1156E-03
   5    9.997       8.775       7.520       6.263       5.088       4.068       3.132       2.168       1.122      3.0824E-03
   6    9.997       8.804       7.583       6.358       5.203       4.173       3.210       2.216       1.145      3.1455E-03
   7    9.997       8.867       7.713       6.555       5.436       4.389       3.372       2.318       1.193      3.2779E-03
   8    9.997       8.936       7.853       6.760       5.676       4.613       3.544       2.429       1.247      3.4259E-03
   9    9.997       8.989       7.960       6.913       5.854       4.781       3.676       2.517       1.290      3.5446E-03
  10    9.998       9.017       8.016       6.993       5.945       4.868       3.746       2.563       1.313      3.6089E-03
1
              HEAD IN LAYER   3 AT END OF TIME STEP  35 IN STRESS PERIOD    5
  ---------------------------------------------------------------------------

            1           2           3           4           5           6           7           8           9          10
 ........................................................................................................................
   1    9.997       8.924       7.836       6.743       5.660       4.591       3.515       2.400       1.228      3.6418E-03
   2    9.997       8.893       7.773       6.651       5.553       4.491       3.438       2.351       1.205      3.5734E-03
   3    9.997       8.842       7.668       6.495       5.369       4.321       3.310       2.271       1.167      3.4621E-03
   4    9.997       8.794       7.564       6.337       5.180       4.148       3.184       2.195       1.132      3.3584E-03
   5    9.997       8.776       7.525       6.273       5.102       4.079       3.136       2.168       1.121      3.3235E-03
   6    9.997       8.805       7.585       6.365       5.213       4.181       3.212       2.215       1.143      3.3905E-03
   7    9.997       8.866       7.714       6.557       5.440       4.391       3.371       2.315       1.191      3.5312E-03
   8    9.997       8.934       7.851       6.758       5.674       4.611       3.540       2.425       1.244      3.6888E-03
   9    9.997       8.987       7.957       6.910       5.850       4.776       3.671       2.512       1.287      3.8155E-03
  10    9.998       9.015       8.013       6.989       5.940       4.862       3.741       2.558       1.310      3.8841E-03
1
              HEAD IN LAYER   4 AT END OF TIME STEP  35 IN STRESS PERIOD    5
  ---------------------------------------------------------------------------

            1           2           3           4           5           6           7           8           9          10
 ........................................................................................................................
   1    9.997       8.923       7.834       6.741       5.658       4.589       3.512       2.398       1.226      3.6652E-03
   2    9.997       8.892       7.772       6.650       5.552       4.490       3.437       2.349       1.204      3.5967E-03
   3    9.997       8.842       7.668       6.495       5.370       4.321       3.310       2.270       1.166      3.4853E-03
   4    9.997       8.794       7.566       6.340       5.185       4.152       3.185       2.194       1.132      3.3816E-03
   5    9.997       8.776       7.527       6.278       5.109       4.084       3.138       2.168       1.120      3.3470E-03
   6    9.997       8.805       7.587       6.369       5.218       4.184       3.213       2.215       1.142      3.4140E-03
   7    9.997       8.866       7.714       6.558       5.441       4.392       3.370       2.314       1.190      3.5550E-03
   8    9.997       8.933       7.850       6.757       5.674       4.609       3.539       2.423       1.242      3.7129E-03
   9    9.997       8.986       7.956       6.908       5.848       4.774       3.669       2.510       1.285      3.8400E-03
  10    9.998       9.014       8.011       6.986       5.938       4.860       3.738       2.556       1.308      3.9089E-03

 HEAD WILL BE SAVED ON UNIT   51 AT END OF TIME STEP   35, STRESS PERIOD    5

 DRAWDOWN WILL BE SAVED ON UNIT   52 AT END OF TIME STEP   35, STRESS PERIOD    5
1
  VOLUMETRIC BUDGET FOR ENTIRE MODEL AT END OF TIME STEP   35, STRESS PERIOD   5
  ------------------------------------------------------------------------------

     CUMULATIVE VOLUMES      L**3       RATES FOR THIS TIME STEP      L**3/T
     ------------------                 ------------------------

           IN:                                      IN:
           ---                                      ---
             STORAGE =      530859.0625               STORAGE =         134.4878
       CONSTANT HEAD =           0.0000         CONSTANT HEAD =           0.0000
               WELLS =           0.0000                 WELLS =           0.0000
     HEAD DEP BOUNDS =      104249.4375       HEAD DEP BOUNDS =         661.3238

            TOTAL IN =      635108.5000              TOTAL IN =         795.8116

          OUT:                                     OUT:
          ----                                     ----
             STORAGE =        9884.4180               STORAGE =         189.0111
       CONSTANT HEAD =           0.0000         CONSTANT HEAD =           0.0000
               WELLS =      100000.0000                 WELLS =           0.0000
     HEAD DEP BOUNDS =      525225.9375       HEAD DEP BOUNDS =         606.7958

           TOTAL OUT =      635110.3750             TOTAL OUT =         795.8069

            IN - OUT =          -1.8750              IN - OUT =       4.7607E-03

 PERCENT DISCREPANCY =          -0.00     PERCENT DISCREPANCY =           0.00






         TIME SUMMARY AT END OF TIME STEP   35 IN STRESS PERIOD    5
                    SECONDS     MINUTES      HOURS       DAYS        YEARS
                    -----------------------------------------------------------
   TIME STEP LENGTH  86400.      1440.0      24.000      1.0000     2.73785E-03
 STRESS PERIOD TIME 3.02400E+06  50400.      840.00      35.000     9.58248E-02
         TOTAL TIME 2.90304E+07 4.83840E+05  8064.0      336.00     0.91992    
1
 
 SOLVING FOR HEAD 

 OUTPUT CONTROL FOR STRESS PERIOD    5   TIME STEP   36
    SAVE HEAD FOR ALL LAYERS
    SAVE DRAWDOWN FOR ALL LAYERS
    SAVE BUDGET
    PRINT HEAD FOR ALL LAYERS
    PRINT BUDGET
 UBDSV1 SAVING "         STORAGE" ON UNIT  53 AT TIME STEP 36, STRESS PERIOD   5
 UBDSV2 SAVING "   CONSTANT HEAD" ON UNIT  53 AT TIME STEP 36, STRESS PERIOD   5
 UBDSV1 SAVING "FLOW RIGHT FACE " ON UNIT  53 AT TIME STEP 36, STRESS PERIOD   5
 UBDSV1 SAVING "FLOW FRONT FACE " ON UNIT  53 AT TIME STEP 36, STRESS PERIOD   5
 UBDSV1 SAVING "FLOW LOWER FACE " ON UNIT  53 AT TIME STEP 36, STRESS PERIOD   5
1
              HEAD IN LAYER   1 AT END OF TIME STEP  36 IN STRESS PERIOD    5
  ---------------------------------------------------------------------------

            1           2           3           4           5           6           7           8           9          10
 ........................................................................................................................
   1    9.997       8.927       7.840       6.748       5.665       4.597       3.521       2.406       1.233      1.7018E-03
   2    9.997       8.896       7.777       6.654       5.556       4.495       3.443       2.356       1.209      1.6677E-03
   3    9.997       8.845       7.669       6.494       5.367       4.320       3.312       2.275       1.171      1.6122E-03
   4    9.997       8.795       7.563       6.331       5.171       4.142       3.183       2.197       1.135      1.5606E-03
   5    9.997       8.776       7.522       6.264       5.088       4.069       3.133       2.169       1.123      1.5431E-03
   6    9.997       8.806       7.584       6.359       5.203       4.174       3.211       2.217       1.146      1.5763E-03
   7    9.997       8.869       7.715       6.556       5.438       4.390       3.373       2.319       1.194      1.6463E-03
   8    9.997       8.937       7.855       6.761       5.677       4.614       3.545       2.430       1.248      1.7249E-03
   9    9.998       8.990       7.962       6.915       5.855       4.782       3.678       2.518       1.291      1.7880E-03
  10    9.998       9.018       8.018       6.994       5.947       4.869       3.747       2.565       1.315      1.8222E-03
1
              HEAD IN LAYER   2 AT END OF TIME STEP  36 IN STRESS PERIOD    5
  ---------------------------------------------------------------------------

            1           2           3           4           5           6           7           8           9          10
 ........................................................................................................................
   1    9.997       8.924       7.836       6.743       5.660       4.591       3.515       2.401       1.229      3.3766E-03
   2    9.997       8.894       7.774       6.652       5.554       4.492       3.439       2.352       1.206      3.3130E-03
   3    9.997       8.844       7.669       6.496       5.371       4.322       3.311       2.272       1.168      3.2095E-03
   4    9.997       8.795       7.567       6.340       5.183       4.151       3.185       2.196       1.133      3.1132E-03
   5    9.997       8.777       7.527       6.277       5.105       4.081       3.138       2.169       1.122      3.0809E-03
   6    9.997       8.806       7.588       6.368       5.216       4.183       3.213       2.216       1.144      3.1432E-03
   7    9.997       8.868       7.715       6.559       5.442       4.392       3.372       2.316       1.192      3.2740E-03
   8    9.997       8.935       7.852       6.759       5.675       4.611       3.541       2.426       1.245      3.4206E-03
   9    9.997       8.987       7.958       6.910       5.850       4.777       3.672       2.513       1.288      3.5385E-03
  10    9.998       9.015       8.013       6.989       5.940       4.863       3.741       2.559       1.311      3.6024E-03
1
              HEAD IN LAYER   3 AT END OF TIME STEP  36 IN STRESS PERIOD    5
  ---------------------------------------------------------------------------

            1           2           3           4           5           6           7           8           9          10
 ........................................................................................................................
   1    9.997       8.922       7.833       6.740       5.656       4.587       3.510       2.396       1.226      3.6352E-03
   2    9.997       8.892       7.772       6.650       5.552       4.489       3.435       2.348       1.203      3.5676E-03
   3    9.997       8.843       7.669       6.498       5.374       4.324       3.310       2.270       1.166      3.4578E-03
   4    9.997       8.795       7.569       6.346       5.192       4.158       3.188       2.195       1.132      3.3559E-03
   5    9.997       8.778       7.531       6.286       5.119       4.092       3.142       2.169       1.120      3.3220E-03
   6    9.997       8.806       7.590       6.375       5.225       4.190       3.216       2.215       1.143      3.3882E-03
   7    9.997       8.867       7.715       6.561       5.445       4.394       3.371       2.314       1.189      3.5272E-03
   8    9.997       8.933       7.850       6.757       5.674       4.609       3.538       2.422       1.242      3.6832E-03
   9    9.997       8.986       7.955       6.906       5.846       4.772       3.667       2.508       1.284      3.8090E-03
  10    9.998       9.013       8.010       6.984       5.935       4.857       3.735       2.554       1.307      3.8772E-03
1
              HEAD IN LAYER   4 AT END OF TIME STEP  36 IN STRESS PERIOD    5
  ---------------------------------------------------------------------------

            1           2           3           4           5           6           7           8           9          10
 ........................................................................................................................
   1    9.997       8.921       7.832       6.738       5.654       4.584       3.508       2.394       1.224      3.6585E-03
   2    9.997       8.892       7.771       6.650       5.551       4.488       3.434       2.346       1.202      3.5908E-03
   3    9.997       8.842       7.670       6.499       5.375       4.324       3.310       2.268       1.165      3.4810E-03
   4    9.997       8.795       7.571       6.350       5.197       4.161       3.189       2.194       1.131      3.3792E-03
   5    9.997       8.778       7.533       6.291       5.125       4.097       3.144       2.169       1.119      3.3456E-03
   6    9.997       8.807       7.592       6.379       5.230       4.193       3.217       2.215       1.142      3.4118E-03
   7    9.997       8.867       7.716       6.562       5.446       4.395       3.370       2.313       1.188      3.5509E-03
   8    9.997       8.933       7.849       6.756       5.673       4.608       3.536       2.420       1.241      3.7073E-03
   9    9.997       8.985       7.953       6.905       5.844       4.770       3.664       2.506       1.283      3.8335E-03
  10    9.998       9.012       8.008       6.982       5.933       4.854       3.733       2.552       1.306      3.9020E-03

 HEAD WILL BE SAVED ON UNIT   51 AT END OF TIME STEP   36, STRESS PERIOD    5

 DRAWDOWN WILL BE SAVED ON UNIT   52 AT END OF TIME STEP   36, STRESS PERIOD    5
1
  VOLUMETRIC BUDGET FOR ENTIRE MODEL AT END OF TIME STEP   36, STRESS PERIOD   5
  ------------------------------------------------------------------------------

     CUMULATIVE VOLUMES      L**3       RATES FOR THIS TIME STEP      L**3/T
     ------------------                 ------------------------

           IN:                                      IN:
           ---                                      ---
             STORAGE =      530988.9375               STORAGE =         129.8941
       CONSTANT HEAD =           0.0000         CONSTANT HEAD =           0.0000
               WELLS =           0.0000                 WELLS =           0.0000
     HEAD DEP BOUNDS =      104910.7266       HEAD DEP BOUNDS =         661.2866

            TOTAL IN =      635899.6875              TOTAL IN =         791.1807

          OUT:                                     OUT:
          ----                                     ----
             STORAGE =       10069.6035               STORAGE =         185.1854
       CONSTANT HEAD =           0.0000         CONSTANT HEAD =           0.0000
               WELLS =      100000.0000                 WELLS =           0.0000
     HEAD DEP BOUNDS =      525831.9375       HEAD DEP BOUNDS =         605.9944

           TOTAL OUT =      635901.5625             TOTAL OUT =         791.1798

            IN - OUT =          -1.8750              IN - OUT =       8.5449E-04

 PERCENT DISCREPANCY =          -0.00     PERCENT DISCREPANCY =           0.00






         TIME SUMMARY AT END OF TIME STEP   36 IN STRESS PERIOD    5
                    SECONDS     MINUTES      HOURS       DAYS        YEARS
                    -----------------------------------------------------------
   TIME STEP LENGTH  86400.      1440.0      24.000      1.0000     2.73785E-03
 STRESS PERIOD TIME 3.11040E+06  51840.      864.00      36.000     9.85626E-02
         TOTAL TIME 2.91168E+07 4.85280E+05  8088.0      337.00     0.92266    
1
 
 SOLVING FOR HEAD 

 OUTPUT CONTROL FOR STRESS PERIOD    5   TIME STEP   37
    SAVE HEAD FOR ALL LAYERS
    SAVE DRAWDOWN FOR ALL LAYERS
    SAVE BUDGET
    PRINT HEAD FOR ALL LAYERS
    PRINT BUDGET
 UBDSV1 SAVING "         STORAGE" ON UNIT  53 AT TIME STEP 37, STRESS PERIOD   5
 UBDSV2 SAVING "   CONSTANT HEAD" ON UNIT  53 AT TIME STEP 37, STRESS PERIOD   5
 UBDSV1 SAVING "FLOW RIGHT FACE " ON UNIT  53 AT TIME STEP 37, STRESS PERIOD   5
 UBDSV1 SAVING "FLOW FRONT FACE " ON UNIT  53 AT TIME STEP 37, STRESS PERIOD   5
 UBDSV1 SAVING "FLOW LOWER FACE " ON UNIT  53 AT TIME STEP 37, STRESS PERIOD   5
1
              HEAD IN LAYER   1 AT END OF TIME STEP  37 IN STRESS PERIOD    5
  ---------------------------------------------------------------------------

            1           2           3           4           5           6           7           8           9          10
 ........................................................................................................................
   1    9.997       8.926       7.838       6.745       5.662       4.592       3.516       2.402       1.230      1.6984E-03
   2    9.997       8.895       7.775       6.654       5.555       4.493       3.440       2.353       1.207      1.6648E-03
   3    9.997       8.845       7.671       6.498       5.372       4.323       3.312       2.273       1.170      1.6101E-03
   4    9.997       8.797       7.568       6.341       5.184       4.151       3.186       2.197       1.135      1.5593E-03
   5    9.997       8.779       7.528       6.277       5.106       4.082       3.139       2.170       1.123      1.5423E-03
   6    9.997       8.808       7.589       6.369       5.216       4.184       3.214       2.218       1.145      1.5751E-03
   7    9.997       8.869       7.717       6.560       5.443       4.393       3.373       2.317       1.193      1.6442E-03
   8    9.997       8.936       7.854       6.760       5.677       4.613       3.542       2.427       1.246      1.7221E-03
   9    9.998       8.989       7.959       6.911       5.851       4.778       3.673       2.514       1.289      1.7847E-03
  10    9.998       9.017       8.015       6.990       5.942       4.864       3.742       2.560       1.312      1.8189E-03
1
              HEAD IN LAYER   2 AT END OF TIME STEP  37 IN STRESS PERIOD    5
  ---------------------------------------------------------------------------

            1           2           3           4           5           6           7           8           9          10
 ........................................................................................................................
   1    9.997       8.923       7.834       6.740       5.657       4.587       3.511       2.397       1.227      3.3704E-03
   2    9.997       8.893       7.773       6.651       5.553       4.490       3.436       2.349       1.204      3.3076E-03
   3    9.997       8.844       7.671       6.500       5.375       4.325       3.311       2.271       1.167      3.2056E-03
   4    9.997       8.797       7.572       6.349       5.195       4.160       3.189       2.196       1.133      3.1109E-03
   5    9.997       8.780       7.534       6.290       5.122       4.094       3.143       2.170       1.121      3.0795E-03
   6    9.997       8.808       7.593       6.378       5.228       4.192       3.217       2.217       1.144      3.1410E-03
   7    9.997       8.868       7.717       6.563       5.447       4.395       3.372       2.315       1.190      3.2702E-03
   8    9.997       8.934       7.851       6.758       5.675       4.610       3.538       2.423       1.243      3.4154E-03
   9    9.997       8.986       7.955       6.907       5.846       4.772       3.667       2.509       1.286      3.5324E-03
  10    9.998       9.014       8.010       6.984       5.935       4.857       3.736       2.555       1.309      3.5960E-03
1
              HEAD IN LAYER   3 AT END OF TIME STEP  37 IN STRESS PERIOD    5
  ---------------------------------------------------------------------------

            1           2           3           4           5           6           7           8           9          10
 ........................................................................................................................
   1    9.997       8.921       7.831       6.737       5.653       4.583       3.506       2.392       1.224      3.6286E-03
   2    9.997       8.892       7.771       6.650       5.551       4.488       3.433       2.345       1.201      3.5619E-03
   3    9.997       8.843       7.671       6.502       5.378       4.327       3.310       2.268       1.165      3.4537E-03
   4    9.997       8.797       7.574       6.356       5.204       4.167       3.191       2.195       1.131      3.3536E-03
   5    9.997       8.781       7.538       6.299       5.135       4.104       3.147       2.170       1.120      3.3207E-03
   6    9.997       8.808       7.596       6.385       5.237       4.199       3.219       2.216       1.142      3.3860E-03
   7    9.997       8.867       7.717       6.565       5.450       4.397       3.371       2.312       1.188      3.5232E-03
   8    9.997       8.933       7.849       6.757       5.673       4.607       3.535       2.419       1.240      3.6778E-03
   9    9.997       8.984       7.952       6.903       5.842       4.768       3.663       2.504       1.282      3.8026E-03
  10    9.998       9.012       8.007       6.980       5.930       4.852       3.730       2.550       1.305      3.8704E-03
1
              HEAD IN LAYER   4 AT END OF TIME STEP  37 IN STRESS PERIOD    5
  ---------------------------------------------------------------------------

            1           2           3           4           5           6           7           8           9          10
 ........................................................................................................................
   1    9.997       8.920       7.830       6.735       5.651       4.580       3.503       2.390       1.222      3.6520E-03
   2    9.997       8.891       7.770       6.649       5.551       4.486       3.431       2.343       1.200      3.5851E-03
   3    9.997       8.843       7.671       6.503       5.380       4.327       3.310       2.267       1.163      3.4769E-03
   4    9.997       8.797       7.576       6.359       5.209       4.170       3.192       2.195       1.130      3.3770E-03
   5    9.997       8.781       7.540       6.303       5.141       4.109       3.149       2.170       1.119      3.3443E-03
   6    9.997       8.808       7.597       6.388       5.242       4.202       3.221       2.215       1.141      3.4097E-03
   7    9.997       8.867       7.717       6.566       5.451       4.398       3.370       2.311       1.187      3.5470E-03
   8    9.997       8.932       7.849       6.756       5.672       4.606       3.533       2.418       1.239      3.7019E-03
   9    9.997       8.983       7.951       6.901       5.840       4.765       3.660       2.502       1.281      3.8271E-03
  10    9.998       9.011       8.005       6.978       5.928       4.849       3.728       2.548       1.303      3.8952E-03

 HEAD WILL BE SAVED ON UNIT   51 AT END OF TIME STEP   37, STRESS PERIOD    5

 DRAWDOWN WILL BE SAVED ON UNIT   52 AT END OF TIME STEP   37, STRESS PERIOD    5
1
  VOLUMETRIC BUDGET FOR ENTIRE MODEL AT END OF TIME STEP   37, STRESS PERIOD   5
  ------------------------------------------------------------------------------

     CUMULATIVE VOLUMES      L**3       RATES FOR THIS TIME STEP      L**3/T
     ------------------                 ------------------------

           IN:                                      IN:
           ---                                      ---
             STORAGE =      531114.3750               STORAGE =         125.4685
       CONSTANT HEAD =           0.0000         CONSTANT HEAD =           0.0000
               WELLS =           0.0000                 WELLS =           0.0000
     HEAD DEP BOUNDS =      105571.9531       HEAD DEP BOUNDS =         661.2259

            TOTAL IN =      636686.3125              TOTAL IN =         786.6943

          OUT:                                     OUT:
          ----                                     ----
             STORAGE =       10251.0762               STORAGE =         181.4722
       CONSTANT HEAD =           0.0000         CONSTANT HEAD =           0.0000
               WELLS =      100000.0000                 WELLS =           0.0000
     HEAD DEP BOUNDS =      526437.1875       HEAD DEP BOUNDS =         605.2189

           TOTAL OUT =      636688.2500             TOTAL OUT =         786.6912

            IN - OUT =          -1.9375              IN - OUT =       3.1738E-03

 PERCENT DISCREPANCY =          -0.00     PERCENT DISCREPANCY =           0.00






         TIME SUMMARY AT END OF TIME STEP   37 IN STRESS PERIOD    5
                    SECONDS     MINUTES      HOURS       DAYS        YEARS
                    -----------------------------------------------------------
   TIME STEP LENGTH  86400.      1440.0      24.000      1.0000     2.73785E-03
 STRESS PERIOD TIME 3.19680E+06  53280.      888.00      37.000     0.10130    
         TOTAL TIME 2.92032E+07 4.86720E+05  8112.0      338.00     0.92539    
1
 
 SOLVING FOR HEAD 

 OUTPUT CONTROL FOR STRESS PERIOD    5   TIME STEP   38
    SAVE HEAD FOR ALL LAYERS
    SAVE DRAWDOWN FOR ALL LAYERS
    SAVE BUDGET
    PRINT HEAD FOR ALL LAYERS
    PRINT BUDGET
 UBDSV1 SAVING "         STORAGE" ON UNIT  53 AT TIME STEP 38, STRESS PERIOD   5
 UBDSV2 SAVING "   CONSTANT HEAD" ON UNIT  53 AT TIME STEP 38, STRESS PERIOD   5
 UBDSV1 SAVING "FLOW RIGHT FACE " ON UNIT  53 AT TIME STEP 38, STRESS PERIOD   5
 UBDSV1 SAVING "FLOW FRONT FACE " ON UNIT  53 AT TIME STEP 38, STRESS PERIOD   5
 UBDSV1 SAVING "FLOW LOWER FACE " ON UNIT  53 AT TIME STEP 38, STRESS PERIOD   5
1
              HEAD IN LAYER   1 AT END OF TIME STEP  38 IN STRESS PERIOD    5
  ---------------------------------------------------------------------------

            1           2           3           4           5           6           7           8           9          10
 ........................................................................................................................
   1    9.997       8.924       7.835       6.742       5.658       4.588       3.512       2.398       1.228      1.6952E-03
   2    9.997       8.895       7.774       6.653       5.554       4.491       3.437       2.350       1.205      1.6619E-03
   3    9.997       8.845       7.672       6.501       5.377       4.326       3.312       2.272       1.168      1.6079E-03
   4    9.997       8.798       7.573       6.350       5.196       4.161       3.190       2.197       1.134      1.5582E-03
   5    9.997       8.781       7.535       6.290       5.123       4.095       3.144       2.171       1.122      1.5416E-03
   6    9.997       8.809       7.594       6.379       5.229       4.193       3.218       2.218       1.145      1.5740E-03
   7    9.997       8.869       7.718       6.564       5.448       4.397       3.373       2.316       1.192      1.6423E-03
   8    9.997       8.935       7.853       6.759       5.676       4.611       3.540       2.424       1.244      1.7193E-03
   9    9.998       8.987       7.956       6.908       5.847       4.774       3.669       2.510       1.287      1.7814E-03
  10    9.998       9.015       8.011       6.986       5.937       4.858       3.737       2.556       1.310      1.8154E-03
1
              HEAD IN LAYER   2 AT END OF TIME STEP  38 IN STRESS PERIOD    5
  ---------------------------------------------------------------------------

            1           2           3           4           5           6           7           8           9          10
 ........................................................................................................................
   1    9.997       8.922       7.831       6.737       5.653       4.583       3.506       2.393       1.225      3.3643E-03
   2    9.997       8.892       7.772       6.651       5.552       4.488       3.433       2.346       1.202      3.3023E-03
   3    9.997       8.844       7.673       6.504       5.380       4.328       3.311       2.269       1.166      3.2017E-03
   4    9.997       8.799       7.577       6.359       5.207       4.169       3.193       2.196       1.132      3.1089E-03
   5    9.997       8.782       7.541       6.302       5.138       4.106       3.149       2.171       1.121      3.0783E-03
   6    9.997       8.810       7.598       6.388       5.240       4.201       3.221       2.217       1.143      3.1390E-03
   7    9.997       8.868       7.719       6.567       5.452       4.398       3.372       2.313       1.189      3.2666E-03
   8    9.997       8.933       7.850       6.757       5.674       4.608       3.536       2.420       1.241      3.4103E-03
   9    9.997       8.985       7.953       6.903       5.842       4.768       3.663       2.505       1.283      3.5265E-03
  10    9.998       9.012       8.007       6.980       5.930       4.852       3.731       2.551       1.306      3.5897E-03
1
              HEAD IN LAYER   3 AT END OF TIME STEP  38 IN STRESS PERIOD    5
  ---------------------------------------------------------------------------

            1           2           3           4           5           6           7           8           9          10
 ........................................................................................................................
   1    9.997       8.920       7.829       6.734       5.650       4.579       3.502       2.389       1.222      3.6222E-03
   2    9.997       8.891       7.770       6.649       5.551       4.486       3.430       2.342       1.199      3.5563E-03
   3    9.997       8.844       7.673       6.506       5.383       4.330       3.310       2.267       1.163      3.4497E-03
   4    9.997       8.799       7.579       6.365       5.216       4.175       3.195       2.195       1.130      3.3515E-03
   5    9.997       8.783       7.545       6.311       5.151       4.116       3.153       2.171       1.119      3.3196E-03
   6    9.997       8.810       7.601       6.394       5.249       4.208       3.223       2.216       1.141      3.3840E-03
   7    9.997       8.868       7.719       6.569       5.455       4.400       3.371       2.311       1.187      3.5195E-03
   8    9.997       8.932       7.849       6.756       5.672       4.606       3.532       2.417       1.238      3.6724E-03
   9    9.997       8.983       7.950       6.900       5.838       4.763       3.658       2.501       1.280      3.7962E-03
  10    9.998       9.010       8.004       6.976       5.925       4.846       3.725       2.546       1.303      3.8637E-03
1
              HEAD IN LAYER   4 AT END OF TIME STEP  38 IN STRESS PERIOD    5
  ---------------------------------------------------------------------------

            1           2           3           4           5           6           7           8           9          10
 ........................................................................................................................
   1    9.997       8.919       7.827       6.732       5.648       4.577       3.499       2.386       1.220      3.6456E-03
   2    9.997       8.890       7.769       6.648       5.550       4.485       3.428       2.341       1.198      3.5796E-03
   3    9.997       8.843       7.673       6.507       5.385       4.330       3.310       2.265       1.162      3.4730E-03
   4    9.997       8.799       7.581       6.368       5.221       4.178       3.196       2.195       1.129      3.3750E-03
   5    9.997       8.783       7.547       6.315       5.157       4.120       3.155       2.171       1.119      3.3433E-03
   6    9.997       8.810       7.602       6.397       5.253       4.211       3.224       2.216       1.140      3.4078E-03
   7    9.997       8.868       7.719       6.570       5.456       4.401       3.371       2.310       1.186      3.5433E-03
   8    9.997       8.931       7.848       6.755       5.672       4.604       3.531       2.415       1.237      3.6966E-03
   9    9.997       8.982       7.948       6.898       5.836       4.761       3.656       2.499       1.279      3.8208E-03
  10    9.998       9.009       8.002       6.974       5.923       4.844       3.723       2.544       1.301      3.8885E-03

 HEAD WILL BE SAVED ON UNIT   51 AT END OF TIME STEP   38, STRESS PERIOD    5

 DRAWDOWN WILL BE SAVED ON UNIT   52 AT END OF TIME STEP   38, STRESS PERIOD    5
1
  VOLUMETRIC BUDGET FOR ENTIRE MODEL AT END OF TIME STEP   38, STRESS PERIOD   5
  ------------------------------------------------------------------------------

     CUMULATIVE VOLUMES      L**3       RATES FOR THIS TIME STEP      L**3/T
     ------------------                 ------------------------

           IN:                                      IN:
           ---                                      ---
             STORAGE =      531235.7500               STORAGE =         121.3473
       CONSTANT HEAD =           0.0000         CONSTANT HEAD =           0.0000
               WELLS =           0.0000                 WELLS =           0.0000
     HEAD DEP BOUNDS =      106233.0781       HEAD DEP BOUNDS =         661.1258

            TOTAL IN =      637468.8125              TOTAL IN =         782.4730

          OUT:                                     OUT:
          ----                                     ----
             STORAGE =       10429.0977               STORAGE =         178.0210
       CONSTANT HEAD =           0.0000         CONSTANT HEAD =           0.0000
               WELLS =      100000.0000                 WELLS =           0.0000
     HEAD DEP BOUNDS =      527041.6250       HEAD DEP BOUNDS =         604.4667

           TOTAL OUT =      637470.7500             TOTAL OUT =         782.4877

            IN - OUT =          -1.9375              IN - OUT =      -1.4709E-02

 PERCENT DISCREPANCY =          -0.00     PERCENT DISCREPANCY =          -0.00






         TIME SUMMARY AT END OF TIME STEP   38 IN STRESS PERIOD    5
                    SECONDS     MINUTES      HOURS       DAYS        YEARS
                    -----------------------------------------------------------
   TIME STEP LENGTH  86400.      1440.0      24.000      1.0000     2.73785E-03
 STRESS PERIOD TIME 3.28320E+06  54720.      912.00      38.000     0.10404    
         TOTAL TIME 2.92896E+07 4.88160E+05  8136.0      339.00     0.92813    
1
 
 SOLVING FOR HEAD 

 OUTPUT CONTROL FOR STRESS PERIOD    5   TIME STEP   39
    SAVE HEAD FOR ALL LAYERS
    SAVE DRAWDOWN FOR ALL LAYERS
    SAVE BUDGET
    PRINT HEAD FOR ALL LAYERS
    PRINT BUDGET
 UBDSV1 SAVING "         STORAGE" ON UNIT  53 AT TIME STEP 39, STRESS PERIOD   5
 UBDSV2 SAVING "   CONSTANT HEAD" ON UNIT  53 AT TIME STEP 39, STRESS PERIOD   5
 UBDSV1 SAVING "FLOW RIGHT FACE " ON UNIT  53 AT TIME STEP 39, STRESS PERIOD   5
 UBDSV1 SAVING "FLOW FRONT FACE " ON UNIT  53 AT TIME STEP 39, STRESS PERIOD   5
 UBDSV1 SAVING "FLOW LOWER FACE " ON UNIT  53 AT TIME STEP 39, STRESS PERIOD   5
1
              HEAD IN LAYER   1 AT END OF TIME STEP  39 IN STRESS PERIOD    5
  ---------------------------------------------------------------------------

            1           2           3           4           5           6           7           8           9          10
 ........................................................................................................................
   1    9.997       8.923       7.833       6.739       5.655       4.584       3.507       2.394       1.226      1.6920E-03
   2    9.997       8.894       7.773       6.652       5.554       4.490       3.434       2.347       1.203      1.6591E-03
   3    9.997       8.846       7.674       6.505       5.381       4.329       3.312       2.270       1.167      1.6059E-03
   4    9.997       8.800       7.578       6.360       5.208       4.170       3.194       2.197       1.133      1.5571E-03
   5    9.997       8.784       7.542       6.303       5.139       4.107       3.150       2.172       1.122      1.5409E-03
   6    9.997       8.811       7.599       6.389       5.241       4.202       3.222       2.218       1.144      1.5729E-03
   7    9.997       8.870       7.720       6.568       5.453       4.400       3.373       2.314       1.190      1.6404E-03
   8    9.997       8.935       7.852       6.759       5.675       4.609       3.537       2.421       1.243      1.7166E-03
   9    9.998       8.986       7.954       6.905       5.844       4.769       3.664       2.507       1.285      1.7783E-03
  10    9.998       9.013       8.008       6.981       5.932       4.853       3.732       2.552       1.308      1.8121E-03
1
              HEAD IN LAYER   2 AT END OF TIME STEP  39 IN STRESS PERIOD    5
  ---------------------------------------------------------------------------

            1           2           3           4           5           6           7           8           9          10
 ........................................................................................................................
   1    9.997       8.920       7.829       6.735       5.650       4.579       3.502       2.389       1.223      3.3584E-03
   2    9.997       8.892       7.771       6.650       5.552       4.487       3.430       2.343       1.200      3.2971E-03
   3    9.997       8.845       7.675       6.508       5.385       4.331       3.311       2.267       1.164      3.1981E-03
   4    9.997       8.801       7.582       6.368       5.219       4.177       3.196       2.196       1.131      3.1069E-03
   5    9.997       8.785       7.547       6.314       5.154       4.118       3.154       2.172       1.120      3.0773E-03
   6    9.997       8.812       7.603       6.397       5.252       4.210       3.225       2.217       1.142      3.1372E-03
   7    9.997       8.869       7.721       6.571       5.456       4.402       3.372       2.312       1.188      3.2631E-03
   8    9.997       8.933       7.849       6.757       5.673       4.606       3.533       2.417       1.239      3.4054E-03
   9    9.997       8.983       7.950       6.900       5.839       4.764       3.659       2.502       1.281      3.5206E-03
  10    9.998       9.010       8.004       6.976       5.925       4.846       3.726       2.547       1.304      3.5835E-03
1
              HEAD IN LAYER   3 AT END OF TIME STEP  39 IN STRESS PERIOD    5
  ---------------------------------------------------------------------------

            1           2           3           4           5           6           7           8           9          10
 ........................................................................................................................
   1    9.997       8.919       7.827       6.731       5.646       4.575       3.498       2.385       1.219      3.6159E-03
   2    9.997       8.890       7.770       6.649       5.550       4.485       3.427       2.340       1.197      3.5509E-03
   3    9.997       8.844       7.675       6.510       5.388       4.333       3.310       2.265       1.162      3.4459E-03
   4    9.997       8.801       7.584       6.374       5.227       4.184       3.199       2.196       1.130      3.3496E-03
   5    9.997       8.785       7.551       6.323       5.165       4.127       3.158       2.172       1.119      3.3186E-03
   6    9.997       8.812       7.606       6.403       5.260       4.216       3.227       2.216       1.141      3.3822E-03
   7    9.997       8.868       7.721       6.573       5.459       4.403       3.371       2.310       1.186      3.5159E-03
   8    9.997       8.931       7.848       6.755       5.672       4.604       3.530       2.414       1.237      3.6672E-03
   9    9.997       8.982       7.947       6.897       5.835       4.759       3.654       2.497       1.278      3.7900E-03
  10    9.998       9.008       8.001       6.972       5.920       4.841       3.720       2.542       1.301      3.8571E-03
1
              HEAD IN LAYER   4 AT END OF TIME STEP  39 IN STRESS PERIOD    5
  ---------------------------------------------------------------------------

            1           2           3           4           5           6           7           8           9          10
 ........................................................................................................................
   1    9.997       8.918       7.825       6.730       5.645       4.573       3.495       2.383       1.218      3.6393E-03
   2    9.997       8.890       7.769       6.648       5.550       4.483       3.425       2.338       1.196      3.5742E-03
   3    9.997       8.844       7.675       6.511       5.389       4.333       3.310       2.264       1.161      3.4693E-03
   4    9.997       8.801       7.586       6.377       5.232       4.187       3.200       2.195       1.129      3.3732E-03
   5    9.997       8.786       7.553       6.327       5.171       4.132       3.160       2.172       1.118      3.3424E-03
   6    9.997       8.812       7.607       6.406       5.265       4.220       3.228       2.216       1.140      3.4060E-03
   7    9.997       8.868       7.721       6.574       5.461       4.404       3.371       2.309       1.185      3.5398E-03
   8    9.997       8.931       7.847       6.755       5.671       4.603       3.528       2.412       1.235      3.6914E-03
   9    9.997       8.981       7.946       6.895       5.833       4.757       3.652       2.495       1.276      3.8146E-03
  10    9.998       9.007       7.999       6.969       5.918       4.838       3.718       2.540       1.299      3.8819E-03

 HEAD WILL BE SAVED ON UNIT   51 AT END OF TIME STEP   39, STRESS PERIOD    5

 DRAWDOWN WILL BE SAVED ON UNIT   52 AT END OF TIME STEP   39, STRESS PERIOD    5
1
  VOLUMETRIC BUDGET FOR ENTIRE MODEL AT END OF TIME STEP   39, STRESS PERIOD   5
  ------------------------------------------------------------------------------

     CUMULATIVE VOLUMES      L**3       RATES FOR THIS TIME STEP      L**3/T
     ------------------                 ------------------------

           IN:                                      IN:
           ---                                      ---
             STORAGE =      531353.1875               STORAGE =         117.4128
       CONSTANT HEAD =           0.0000         CONSTANT HEAD =           0.0000
               WELLS =           0.0000                 WELLS =           0.0000
     HEAD DEP BOUNDS =      106894.1094       HEAD DEP BOUNDS =         661.0293

            TOTAL IN =      638247.3125              TOTAL IN =         778.4421

          OUT:                                     OUT:
          ----                                     ----
             STORAGE =       10603.7988               STORAGE =         174.7009
       CONSTANT HEAD =           0.0000         CONSTANT HEAD =           0.0000
               WELLS =      100000.0000                 WELLS =           0.0000
     HEAD DEP BOUNDS =      527645.3750       HEAD DEP BOUNDS =         603.7402

           TOTAL OUT =      638249.1875             TOTAL OUT =         778.4412

            IN - OUT =          -1.8750              IN - OUT =       9.1553E-04

 PERCENT DISCREPANCY =          -0.00     PERCENT DISCREPANCY =           0.00






         TIME SUMMARY AT END OF TIME STEP   39 IN STRESS PERIOD    5
                    SECONDS     MINUTES      HOURS       DAYS        YEARS
                    -----------------------------------------------------------
   TIME STEP LENGTH  86400.      1440.0      24.000      1.0000     2.73785E-03
 STRESS PERIOD TIME 3.36960E+06  56160.      936.00      39.000     0.10678    
         TOTAL TIME 2.93760E+07 4.89600E+05  8160.0      340.00     0.93087    
1
 
 SOLVING FOR HEAD 

 OUTPUT CONTROL FOR STRESS PERIOD    5   TIME STEP   40
    SAVE HEAD FOR ALL LAYERS
    SAVE DRAWDOWN FOR ALL LAYERS
    SAVE BUDGET
    PRINT HEAD FOR ALL LAYERS
    PRINT BUDGET
 UBDSV1 SAVING "         STORAGE" ON UNIT  53 AT TIME STEP 40, STRESS PERIOD   5
 UBDSV2 SAVING "   CONSTANT HEAD" ON UNIT  53 AT TIME STEP 40, STRESS PERIOD   5
 UBDSV1 SAVING "FLOW RIGHT FACE " ON UNIT  53 AT TIME STEP 40, STRESS PERIOD   5
 UBDSV1 SAVING "FLOW FRONT FACE " ON UNIT  53 AT TIME STEP 40, STRESS PERIOD   5
 UBDSV1 SAVING "FLOW LOWER FACE " ON UNIT  53 AT TIME STEP 40, STRESS PERIOD   5
1
              HEAD IN LAYER   1 AT END OF TIME STEP  40 IN STRESS PERIOD    5
  ---------------------------------------------------------------------------

            1           2           3           4           5           6           7           8           9          10
 ........................................................................................................................
   1    9.997       8.922       7.831       6.736       5.651       4.580       3.503       2.390       1.224      1.6887E-03
   2    9.997       8.893       7.773       6.651       5.553       4.488       3.432       2.344       1.201      1.6564E-03
   3    9.997       8.846       7.676       6.509       5.386       4.332       3.312       2.269       1.165      1.6041E-03
   4    9.997       8.802       7.583       6.369       5.220       4.178       3.197       2.197       1.132      1.5561E-03
   5    9.997       8.786       7.548       6.315       5.154       4.119       3.155       2.173       1.122      1.5405E-03
   6    9.997       8.813       7.604       6.398       5.253       4.211       3.226       2.218       1.143      1.5719E-03
   7    9.997       8.870       7.722       6.572       5.458       4.403       3.373       2.313       1.189      1.6385E-03
   8    9.997       8.934       7.851       6.758       5.675       4.608       3.534       2.419       1.241      1.7139E-03
   9    9.998       8.985       7.952       6.902       5.840       4.765       3.660       2.503       1.283      1.7752E-03
  10    9.998       9.012       8.005       6.977       5.927       4.848       3.727       2.548       1.305      1.8087E-03
1
              HEAD IN LAYER   2 AT END OF TIME STEP  40 IN STRESS PERIOD    5
  ---------------------------------------------------------------------------

            1           2           3           4           5           6           7           8           9          10
 ........................................................................................................................
   1    9.997       8.919       7.827       6.732       5.647       4.575       3.498       2.386       1.220      3.3525E-03
   2    9.997       8.891       7.770       6.650       5.551       4.485       3.428       2.340       1.198      3.2921E-03
   3    9.997       8.845       7.676       6.512       5.390       4.334       3.312       2.266       1.163      3.1946E-03
   4    9.997       8.802       7.586       6.377       5.230       4.186       3.200       2.197       1.131      3.1052E-03
   5    9.997       8.787       7.554       6.326       5.168       4.130       3.160       2.173       1.120      3.0764E-03
   6    9.997       8.813       7.608       6.406       5.263       4.219       3.228       2.217       1.142      3.1355E-03
   7    9.997       8.870       7.723       6.574       5.461       4.405       3.373       2.311       1.187      3.2598E-03
   8    9.997       8.932       7.849       6.756       5.673       4.605       3.530       2.415       1.238      3.4005E-03
   9    9.997       8.982       7.948       6.897       5.835       4.760       3.654       2.498       1.279      3.5148E-03
  10    9.998       9.009       8.001       6.972       5.920       4.841       3.721       2.543       1.302      3.5773E-03
1
              HEAD IN LAYER   3 AT END OF TIME STEP  40 IN STRESS PERIOD    5
  ---------------------------------------------------------------------------

            1           2           3           4           5           6           7           8           9          10
 ........................................................................................................................
   1    9.997       8.917       7.825       6.729       5.643       4.571       3.494       2.382       1.217      3.6098E-03
   2    9.997       8.890       7.769       6.648       5.550       4.483       3.425       2.337       1.196      3.5456E-03
   3    9.997       8.845       7.677       6.514       5.392       4.335       3.311       2.264       1.161      3.4423E-03
   4    9.997       8.803       7.589       6.383       5.238       4.192       3.202       2.196       1.129      3.3479E-03
   5    9.997       8.788       7.558       6.334       5.180       4.138       3.164       2.173       1.119      3.3178E-03
   6    9.997       8.814       7.610       6.412       5.271       4.225       3.231       2.217       1.140      3.3806E-03
   7    9.997       8.869       7.723       6.576       5.464       4.406       3.372       2.308       1.184      3.5124E-03
   8    9.997       8.931       7.847       6.755       5.671       4.603       3.527       2.411       1.235      3.6621E-03
   9    9.997       8.980       7.945       6.894       5.831       4.755       3.650       2.494       1.276      3.7839E-03
  10    9.998       9.007       7.998       6.967       5.916       4.836       3.715       2.538       1.298      3.8505E-03
1
              HEAD IN LAYER   4 AT END OF TIME STEP  40 IN STRESS PERIOD    5
  ---------------------------------------------------------------------------

            1           2           3           4           5           6           7           8           9          10
 ........................................................................................................................
   1    9.997       8.917       7.823       6.727       5.642       4.569       3.491       2.379       1.216      3.6332E-03
   2    9.997       8.889       7.768       6.648       5.549       4.482       3.423       2.335       1.194      3.5690E-03
   3    9.997       8.845       7.677       6.514       5.394       4.336       3.310       2.263       1.160      3.4657E-03
   4    9.997       8.803       7.590       6.386       5.242       4.195       3.203       2.196       1.128      3.3715E-03
   5    9.997       8.788       7.559       6.338       5.185       4.143       3.165       2.173       1.118      3.3416E-03
   6    9.997       8.814       7.612       6.415       5.275       4.228       3.232       2.216       1.139      3.4045E-03
   7    9.997       8.869       7.723       6.577       5.466       4.407       3.372       2.307       1.183      3.5364E-03
   8    9.997       8.930       7.846       6.754       5.671       4.602       3.526       2.409       1.234      3.6863E-03
   9    9.997       8.979       7.944       6.892       5.829       4.753       3.647       2.492       1.274      3.8085E-03
  10    9.998       9.006       7.996       6.965       5.913       4.833       3.713       2.536       1.297      3.8753E-03

 HEAD WILL BE SAVED ON UNIT   51 AT END OF TIME STEP   40, STRESS PERIOD    5

 DRAWDOWN WILL BE SAVED ON UNIT   52 AT END OF TIME STEP   40, STRESS PERIOD    5
1
  VOLUMETRIC BUDGET FOR ENTIRE MODEL AT END OF TIME STEP   40, STRESS PERIOD   5
  ------------------------------------------------------------------------------

     CUMULATIVE VOLUMES      L**3       RATES FOR THIS TIME STEP      L**3/T
     ------------------                 ------------------------

           IN:                                      IN:
           ---                                      ---
             STORAGE =      531466.8125               STORAGE =         113.5973
       CONSTANT HEAD =           0.0000         CONSTANT HEAD =           0.0000
               WELLS =           0.0000                 WELLS =           0.0000
     HEAD DEP BOUNDS =      107555.0078       HEAD DEP BOUNDS =         660.8958

            TOTAL IN =      639021.8125              TOTAL IN =         774.4930

          OUT:                                     OUT:
          ----                                     ----
             STORAGE =       10775.2666               STORAGE =         171.4676
       CONSTANT HEAD =           0.0000         CONSTANT HEAD =           0.0000
               WELLS =      100000.0000                 WELLS =           0.0000
     HEAD DEP BOUNDS =      528248.4375       HEAD DEP BOUNDS =         603.0381

           TOTAL OUT =      639023.6875             TOTAL OUT =         774.5057

            IN - OUT =          -1.8750              IN - OUT =      -1.2634E-02

 PERCENT DISCREPANCY =          -0.00     PERCENT DISCREPANCY =          -0.00






         TIME SUMMARY AT END OF TIME STEP   40 IN STRESS PERIOD    5
                    SECONDS     MINUTES      HOURS       DAYS        YEARS
                    -----------------------------------------------------------
   TIME STEP LENGTH  86400.      1440.0      24.000      1.0000     2.73785E-03
 STRESS PERIOD TIME 3.45600E+06  57600.      960.00      40.000     0.10951    
         TOTAL TIME 2.94624E+07 4.91040E+05  8184.0      341.00     0.93361    
1
 
 SOLVING FOR HEAD 

 OUTPUT CONTROL FOR STRESS PERIOD    5   TIME STEP   41
    SAVE HEAD FOR ALL LAYERS
    SAVE DRAWDOWN FOR ALL LAYERS
    SAVE BUDGET
    PRINT HEAD FOR ALL LAYERS
    PRINT BUDGET
 UBDSV1 SAVING "         STORAGE" ON UNIT  53 AT TIME STEP 41, STRESS PERIOD   5
 UBDSV2 SAVING "   CONSTANT HEAD" ON UNIT  53 AT TIME STEP 41, STRESS PERIOD   5
 UBDSV1 SAVING "FLOW RIGHT FACE " ON UNIT  53 AT TIME STEP 41, STRESS PERIOD   5
 UBDSV1 SAVING "FLOW FRONT FACE " ON UNIT  53 AT TIME STEP 41, STRESS PERIOD   5
 UBDSV1 SAVING "FLOW LOWER FACE " ON UNIT  53 AT TIME STEP 41, STRESS PERIOD   5
1
              HEAD IN LAYER   1 AT END OF TIME STEP  41 IN STRESS PERIOD    5
  ---------------------------------------------------------------------------

            1           2           3           4           5           6           7           8           9          10
 ........................................................................................................................
   1    9.997       8.921       7.829       6.733       5.648       4.577       3.499       2.387       1.222      1.6857E-03
   2    9.997       8.893       7.772       6.651       5.553       4.487       3.429       2.341       1.200      1.6537E-03
   3    9.997       8.847       7.678       6.513       5.391       4.335       3.313       2.267       1.164      1.6023E-03
   4    9.997       8.804       7.588       6.378       5.231       4.187       3.201       2.198       1.132      1.5552E-03
   5    9.997       8.789       7.555       6.327       5.169       4.131       3.161       2.174       1.121      1.5400E-03
   6    9.997       8.815       7.609       6.407       5.264       4.219       3.229       2.218       1.143      1.5711E-03
   7    9.997       8.871       7.724       6.576       5.462       4.406       3.374       2.312       1.188      1.6368E-03
   8    9.997       8.933       7.850       6.758       5.674       4.606       3.532       2.416       1.239      1.7113E-03
   9    9.998       8.983       7.949       6.899       5.836       4.761       3.656       2.499       1.281      1.7720E-03
  10    9.998       9.010       8.002       6.973       5.922       4.843       3.722       2.544       1.303      1.8056E-03
1
              HEAD IN LAYER   2 AT END OF TIME STEP  41 IN STRESS PERIOD    5
  ---------------------------------------------------------------------------

            1           2           3           4           5           6           7           8           9          10
 ........................................................................................................................
   1    9.997       8.918       7.825       6.729       5.644       4.572       3.494       2.382       1.218      3.3468E-03
   2    9.997       8.891       7.770       6.649       5.551       4.484       3.425       2.338       1.197      3.2872E-03
   3    9.997       8.846       7.678       6.515       5.394       4.337       3.312       2.265       1.162      3.1912E-03
   4    9.997       8.804       7.591       6.386       5.241       4.194       3.204       2.197       1.130      3.1036E-03
   5    9.997       8.790       7.560       6.337       5.183       4.141       3.165       2.174       1.120      3.0757E-03
   6    9.997       8.815       7.613       6.415       5.274       4.227       3.232       2.218       1.141      3.1340E-03
   7    9.997       8.870       7.725       6.578       5.466       4.408       3.373       2.309       1.186      3.2566E-03
   8    9.997       8.932       7.848       6.756       5.672       4.603       3.528       2.412       1.236      3.3958E-03
   9    9.997       8.981       7.946       6.894       5.832       4.756       3.650       2.494       1.277      3.5092E-03
  10    9.998       9.007       7.998       6.968       5.916       4.836       3.716       2.539       1.300      3.5712E-03
1
              HEAD IN LAYER   3 AT END OF TIME STEP  41 IN STRESS PERIOD    5
  ---------------------------------------------------------------------------

            1           2           3           4           5           6           7           8           9          10
 ........................................................................................................................
   1    9.997       8.916       7.823       6.726       5.641       4.568       3.490       2.378       1.215      3.6037E-03
   2    9.997       8.889       7.768       6.648       5.549       4.482       3.422       2.334       1.194      3.5405E-03
   3    9.997       8.845       7.679       6.517       5.397       4.338       3.311       2.263       1.160      3.4388E-03
   4    9.997       8.805       7.594       6.392       5.249       4.200       3.206       2.196       1.128      3.3463E-03
   5    9.997       8.790       7.564       6.345       5.193       4.149       3.169       2.174       1.119      3.3171E-03
   6    9.997       8.816       7.615       6.421       5.282       4.233       3.234       2.217       1.139      3.3791E-03
   7    9.997       8.870       7.725       6.580       5.469       4.409       3.372       2.307       1.183      3.5092E-03
   8    9.997       8.930       7.847       6.755       5.671       4.601       3.525       2.409       1.233      3.6572E-03
   9    9.997       8.979       7.943       6.891       5.828       4.751       3.646       2.490       1.274      3.7779E-03
  10    9.998       9.005       7.995       6.963       5.911       4.831       3.711       2.535       1.296      3.8440E-03
1
              HEAD IN LAYER   4 AT END OF TIME STEP  41 IN STRESS PERIOD    5
  ---------------------------------------------------------------------------

            1           2           3           4           5           6           7           8           9          10
 ........................................................................................................................
   1    9.997       8.916       7.822       6.725       5.639       4.566       3.488       2.376       1.214      3.6272E-03
   2    9.997       8.889       7.768       6.647       5.549       4.481       3.421       2.332       1.193      3.5639E-03
   3    9.997       8.845       7.679       6.518       5.398       4.339       3.311       2.262       1.159      3.4623E-03
   4    9.997       8.805       7.595       6.394       5.253       4.203       3.207       2.196       1.128      3.3699E-03
   5    9.997       8.791       7.566       6.349       5.199       4.153       3.171       2.174       1.118      3.3410E-03
   6    9.997       8.816       7.617       6.424       5.286       4.236       3.235       2.217       1.139      3.4030E-03
   7    9.997       8.869       7.725       6.581       5.470       4.410       3.372       2.306       1.182      3.5332E-03
   8    9.997       8.930       7.846       6.754       5.670       4.600       3.523       2.407       1.232      3.6814E-03
   9    9.997       8.978       7.942       6.889       5.826       4.749       3.643       2.488       1.272      3.8025E-03
  10    9.998       9.004       7.993       6.961       5.908       4.828       3.708       2.532       1.295      3.8688E-03

 HEAD WILL BE SAVED ON UNIT   51 AT END OF TIME STEP   41, STRESS PERIOD    5

 DRAWDOWN WILL BE SAVED ON UNIT   52 AT END OF TIME STEP   41, STRESS PERIOD    5
1
  VOLUMETRIC BUDGET FOR ENTIRE MODEL AT END OF TIME STEP   41, STRESS PERIOD   5
  ------------------------------------------------------------------------------

     CUMULATIVE VOLUMES      L**3       RATES FOR THIS TIME STEP      L**3/T
     ------------------                 ------------------------

           IN:                                      IN:
           ---                                      ---
             STORAGE =      531576.6875               STORAGE =         109.8690
       CONSTANT HEAD =           0.0000         CONSTANT HEAD =           0.0000
               WELLS =           0.0000                 WELLS =           0.0000
     HEAD DEP BOUNDS =      108215.7734       HEAD DEP BOUNDS =         660.7653

            TOTAL IN =      639792.4375              TOTAL IN =         770.6343

          OUT:                                     OUT:
          ----                                     ----
             STORAGE =       10943.5410               STORAGE =         168.2747
       CONSTANT HEAD =           0.0000         CONSTANT HEAD =           0.0000
               WELLS =      100000.0000                 WELLS =           0.0000
     HEAD DEP BOUNDS =      528850.8125       HEAD DEP BOUNDS =         602.3593

           TOTAL OUT =      639794.3750             TOTAL OUT =         770.6339

            IN - OUT =          -1.9375              IN - OUT =       3.6621E-04

 PERCENT DISCREPANCY =          -0.00     PERCENT DISCREPANCY =           0.00






         TIME SUMMARY AT END OF TIME STEP   41 IN STRESS PERIOD    5
                    SECONDS     MINUTES      HOURS       DAYS        YEARS
                    -----------------------------------------------------------
   TIME STEP LENGTH  86400.      1440.0      24.000      1.0000     2.73785E-03
 STRESS PERIOD TIME 3.54240E+06  59040.      984.00      41.000     0.11225    
         TOTAL TIME 2.95488E+07 4.92480E+05  8208.0      342.00     0.93634    
1
 
 SOLVING FOR HEAD 

 OUTPUT CONTROL FOR STRESS PERIOD    5   TIME STEP   42
    SAVE HEAD FOR ALL LAYERS
    SAVE DRAWDOWN FOR ALL LAYERS
    SAVE BUDGET
    PRINT HEAD FOR ALL LAYERS
    PRINT BUDGET
 UBDSV1 SAVING "         STORAGE" ON UNIT  53 AT TIME STEP 42, STRESS PERIOD   5
 UBDSV2 SAVING "   CONSTANT HEAD" ON UNIT  53 AT TIME STEP 42, STRESS PERIOD   5
 UBDSV1 SAVING "FLOW RIGHT FACE " ON UNIT  53 AT TIME STEP 42, STRESS PERIOD   5
 UBDSV1 SAVING "FLOW FRONT FACE " ON UNIT  53 AT TIME STEP 42, STRESS PERIOD   5
 UBDSV1 SAVING "FLOW LOWER FACE " ON UNIT  53 AT TIME STEP 42, STRESS PERIOD   5
1
              HEAD IN LAYER   1 AT END OF TIME STEP  42 IN STRESS PERIOD    5
  ---------------------------------------------------------------------------

            1           2           3           4           5           6           7           8           9          10
 ........................................................................................................................
   1    9.997       8.920       7.827       6.731       5.645       4.573       3.495       2.383       1.220      1.6828E-03
   2    9.997       8.892       7.771       6.651       5.552       4.485       3.426       2.339       1.198      1.6511E-03
   3    9.997       8.847       7.680       6.517       5.395       4.338       3.313       2.266       1.163      1.6005E-03
   4    9.997       8.806       7.593       6.387       5.242       4.195       3.205       2.198       1.131      1.5544E-03
   5    9.997       8.791       7.561       6.338       5.183       4.142       3.166       2.175       1.121      1.5397E-03
   6    9.997       8.817       7.614       6.416       5.275       4.228       3.233       2.219       1.142      1.5703E-03
   7    9.997       8.872       7.726       6.579       5.467       4.409       3.374       2.311       1.187      1.6351E-03
   8    9.997       8.933       7.849       6.757       5.674       4.605       3.529       2.413       1.237      1.7088E-03
   9    9.998       8.982       7.947       6.896       5.833       4.757       3.652       2.496       1.278      1.7690E-03
  10    9.998       9.008       7.999       6.969       5.917       4.838       3.717       2.540       1.301      1.8022E-03
1
              HEAD IN LAYER   2 AT END OF TIME STEP  42 IN STRESS PERIOD    5
  ---------------------------------------------------------------------------

            1           2           3           4           5           6           7           8           9          10
 ........................................................................................................................
   1    9.997       8.917       7.823       6.727       5.641       4.568       3.490       2.379       1.216      3.3413E-03
   2    9.997       8.890       7.769       6.649       5.550       4.483       3.423       2.335       1.195      3.2824E-03
   3    9.997       8.847       7.680       6.519       5.399       4.340       3.312       2.264       1.161      3.1880E-03
   4    9.997       8.806       7.596       6.394       5.251       4.202       3.207       2.197       1.129      3.1021E-03
   5    9.997       8.792       7.566       6.348       5.196       4.151       3.170       2.176       1.120      3.0751E-03
   6    9.997       8.817       7.617       6.423       5.285       4.235       3.236       2.218       1.141      3.1327E-03
   7    9.997       8.871       7.726       6.582       5.471       4.411       3.373       2.308       1.184      3.2536E-03
   8    9.997       8.931       7.847       6.756       5.672       4.602       3.526       2.410       1.234      3.3912E-03
   9    9.997       8.980       7.943       6.891       5.828       4.752       3.646       2.491       1.275      3.5036E-03
  10    9.998       9.006       7.995       6.964       5.911       4.831       3.711       2.535       1.297      3.5652E-03
1
              HEAD IN LAYER   3 AT END OF TIME STEP  42 IN STRESS PERIOD    5
  ---------------------------------------------------------------------------

            1           2           3           4           5           6           7           8           9          10
 ........................................................................................................................
   1    9.997       8.915       7.821       6.724       5.638       4.564       3.486       2.375       1.213      3.5978E-03
   2    9.997       8.889       7.768       6.648       5.549       4.481       3.420       2.332       1.192      3.5355E-03
   3    9.997       8.846       7.681       6.521       5.402       4.341       3.312       2.262       1.159      3.4355E-03
   4    9.997       8.806       7.599       6.400       5.259       4.208       3.210       2.197       1.128      3.3448E-03
   5    9.997       8.793       7.570       6.356       5.206       4.160       3.174       2.176       1.118      3.3166E-03
   6    9.997       8.818       7.620       6.429       5.292       4.241       3.238       2.218       1.139      3.3778E-03
   7    9.997       8.870       7.727       6.584       5.473       4.412       3.373       2.306       1.182      3.5060E-03
   8    9.997       8.930       7.846       6.754       5.671       4.600       3.523       2.406       1.232      3.6523E-03
   9    9.997       8.978       7.941       6.888       5.824       4.747       3.642       2.487       1.272      3.7720E-03
  10    9.998       9.004       7.992       6.960       5.906       4.826       3.706       2.531       1.294      3.8376E-03
1
              HEAD IN LAYER   4 AT END OF TIME STEP  42 IN STRESS PERIOD    5
  ---------------------------------------------------------------------------

            1           2           3           4           5           6           7           8           9          10
 ........................................................................................................................
   1    9.997       8.915       7.820       6.723       5.636       4.563       3.484       2.373       1.212      3.6213E-03
   2    9.997       8.888       7.767       6.647       5.549       4.480       3.418       2.330       1.191      3.5589E-03
   3    9.997       8.846       7.681       6.522       5.403       4.342       3.311       2.260       1.157      3.4590E-03
   4    9.997       8.807       7.600       6.403       5.263       4.211       3.211       2.197       1.127      3.3686E-03
   5    9.997       8.793       7.572       6.360       5.211       4.164       3.176       2.176       1.118      3.3406E-03
   6    9.997       8.818       7.621       6.432       5.296       4.244       3.239       2.217       1.138      3.4018E-03
   7    9.997       8.870       7.727       6.585       5.475       4.413       3.373       2.305       1.181      3.5301E-03
   8    9.997       8.929       7.845       6.754       5.670       4.599       3.521       2.404       1.230      3.6766E-03
   9    9.997       8.977       7.940       6.887       5.823       4.745       3.639       2.485       1.270      3.7966E-03
  10    9.998       9.003       7.990       6.958       5.904       4.824       3.703       2.528       1.292      3.8624E-03

 HEAD WILL BE SAVED ON UNIT   51 AT END OF TIME STEP   42, STRESS PERIOD    5

 DRAWDOWN WILL BE SAVED ON UNIT   52 AT END OF TIME STEP   42, STRESS PERIOD    5
1
  VOLUMETRIC BUDGET FOR ENTIRE MODEL AT END OF TIME STEP   42, STRESS PERIOD   5
  ------------------------------------------------------------------------------

     CUMULATIVE VOLUMES      L**3       RATES FOR THIS TIME STEP      L**3/T
     ------------------                 ------------------------

           IN:                                      IN:
           ---                                      ---
             STORAGE =      531682.9375               STORAGE =         106.2300
       CONSTANT HEAD =           0.0000         CONSTANT HEAD =           0.0000
               WELLS =           0.0000                 WELLS =           0.0000
     HEAD DEP BOUNDS =      108876.3672       HEAD DEP BOUNDS =         660.5938

            TOTAL IN =      640559.3125              TOTAL IN =         766.8238

          OUT:                                     OUT:
          ----                                     ----
             STORAGE =       11108.6738               STORAGE =         165.1323
       CONSTANT HEAD =           0.0000         CONSTANT HEAD =           0.0000
               WELLS =      100000.0000                 WELLS =           0.0000
     HEAD DEP BOUNDS =      529452.5000       HEAD DEP BOUNDS =         601.7038

           TOTAL OUT =      640561.1875             TOTAL OUT =         766.8361

            IN - OUT =          -1.8750              IN - OUT =      -1.2329E-02

 PERCENT DISCREPANCY =          -0.00     PERCENT DISCREPANCY =          -0.00






         TIME SUMMARY AT END OF TIME STEP   42 IN STRESS PERIOD    5
                    SECONDS     MINUTES      HOURS       DAYS        YEARS
                    -----------------------------------------------------------
   TIME STEP LENGTH  86400.      1440.0      24.000      1.0000     2.73785E-03
 STRESS PERIOD TIME 3.62880E+06  60480.      1008.0      42.000     0.11499    
         TOTAL TIME 2.96352E+07 4.93920E+05  8232.0      343.00     0.93908    
1
 
 SOLVING FOR HEAD 

 OUTPUT CONTROL FOR STRESS PERIOD    5   TIME STEP   43
    SAVE HEAD FOR ALL LAYERS
    SAVE DRAWDOWN FOR ALL LAYERS
    SAVE BUDGET
    PRINT HEAD FOR ALL LAYERS
    PRINT BUDGET
 UBDSV1 SAVING "         STORAGE" ON UNIT  53 AT TIME STEP 43, STRESS PERIOD   5
 UBDSV2 SAVING "   CONSTANT HEAD" ON UNIT  53 AT TIME STEP 43, STRESS PERIOD   5
 UBDSV1 SAVING "FLOW RIGHT FACE " ON UNIT  53 AT TIME STEP 43, STRESS PERIOD   5
 UBDSV1 SAVING "FLOW FRONT FACE " ON UNIT  53 AT TIME STEP 43, STRESS PERIOD   5
 UBDSV1 SAVING "FLOW LOWER FACE " ON UNIT  53 AT TIME STEP 43, STRESS PERIOD   5
1
              HEAD IN LAYER   1 AT END OF TIME STEP  43 IN STRESS PERIOD    5
  ---------------------------------------------------------------------------

            1           2           3           4           5           6           7           8           9          10
 ........................................................................................................................
   1    9.997       8.918       7.825       6.728       5.642       4.570       3.491       2.380       1.217      1.6799E-03
   2    9.997       8.892       7.771       6.650       5.552       4.484       3.424       2.336       1.196      1.6485E-03
   3    9.997       8.848       7.682       6.520       5.400       4.341       3.313       2.265       1.162      1.5988E-03
   4    9.997       8.807       7.597       6.395       5.252       4.203       3.208       2.199       1.131      1.5536E-03
   5    9.997       8.794       7.567       6.349       5.197       4.152       3.172       2.177       1.121      1.5393E-03
   6    9.997       8.819       7.619       6.424       5.285       4.236       3.237       2.219       1.142      1.5697E-03
   7    9.997       8.872       7.728       6.583       5.472       4.412       3.375       2.310       1.186      1.6334E-03
   8    9.997       8.932       7.849       6.757       5.673       4.603       3.527       2.411       1.236      1.7064E-03
   9    9.998       8.981       7.945       6.893       5.830       4.753       3.647       2.492       1.276      1.7662E-03
  10    9.998       9.007       7.996       6.965       5.912       4.833       3.712       2.537       1.299      1.7991E-03
1
              HEAD IN LAYER   2 AT END OF TIME STEP  43 IN STRESS PERIOD    5
  ---------------------------------------------------------------------------

            1           2           3           4           5           6           7           8           9          10
 ........................................................................................................................
   1    9.997       8.916       7.822       6.725       5.638       4.565       3.486       2.376       1.214      3.3358E-03
   2    9.997       8.890       7.769       6.649       5.550       4.481       3.421       2.332       1.193      3.2778E-03
   3    9.997       8.847       7.682       6.523       5.403       4.343       3.313       2.262       1.160      3.1850E-03
   4    9.997       8.808       7.601       6.402       5.262       4.210       3.211       2.198       1.129      3.1008E-03
   5    9.997       8.795       7.572       6.359       5.209       4.162       3.176       2.177       1.119      3.0746E-03
   6    9.997       8.819       7.622       6.432       5.295       4.243       3.239       2.219       1.140      3.1315E-03
   7    9.997       8.872       7.729       6.586       5.475       4.414       3.374       2.307       1.183      3.2507E-03
   8    9.997       8.931       7.847       6.755       5.671       4.601       3.523       2.407       1.233      3.3868E-03
   9    9.997       8.978       7.941       6.889       5.825       4.748       3.642       2.488       1.273      3.4981E-03
  10    9.998       9.004       7.992       6.960       5.906       4.826       3.706       2.531       1.295      3.5592E-03
1
              HEAD IN LAYER   3 AT END OF TIME STEP  43 IN STRESS PERIOD    5
  ---------------------------------------------------------------------------

            1           2           3           4           5           6           7           8           9          10
 ........................................................................................................................
   1    9.997       8.914       7.819       6.722       5.635       4.561       3.482       2.372       1.211      3.5921E-03
   2    9.997       8.889       7.767       6.647       5.549       4.479       3.418       2.329       1.191      3.5306E-03
   3    9.997       8.847       7.683       6.525       5.406       4.344       3.312       2.260       1.157      3.4324E-03
   4    9.997       8.808       7.603       6.408       5.269       4.216       3.213       2.197       1.128      3.3436E-03
   5    9.997       8.795       7.576       6.366       5.219       4.170       3.179       2.177       1.118      3.3162E-03
   6    9.997       8.820       7.625       6.437       5.302       4.249       3.242       2.218       1.139      3.3766E-03
   7    9.997       8.871       7.729       6.588       5.478       4.415       3.373       2.305       1.181      3.5031E-03
   8    9.997       8.930       7.846       6.754       5.670       4.599       3.520       2.404       1.230      3.6477E-03
   9    9.997       8.977       7.939       6.885       5.821       4.744       3.638       2.483       1.270      3.7662E-03
  10    9.998       9.002       7.989       6.956       5.902       4.821       3.701       2.527       1.292      3.8313E-03
1
              HEAD IN LAYER   4 AT END OF TIME STEP  43 IN STRESS PERIOD    5
  ---------------------------------------------------------------------------

            1           2           3           4           5           6           7           8           9          10
 ........................................................................................................................
   1    9.997       8.914       7.818       6.721       5.634       4.559       3.480       2.370       1.210      3.6155E-03
   2    9.997       8.888       7.767       6.647       5.548       4.478       3.416       2.327       1.189      3.5541E-03
   3    9.997       8.847       7.683       6.526       5.407       4.345       3.312       2.259       1.156      3.4559E-03
   4    9.997       8.808       7.605       6.411       5.273       4.218       3.214       2.197       1.127      3.3673E-03
   5    9.997       8.796       7.578       6.370       5.224       4.173       3.181       2.177       1.118      3.3402E-03
   6    9.997       8.820       7.626       6.440       5.306       4.251       3.243       2.218       1.138      3.4006E-03
   7    9.997       8.871       7.729       6.589       5.479       4.416       3.373       2.304       1.180      3.5271E-03
   8    9.997       8.929       7.845       6.753       5.670       4.598       3.519       2.402       1.229      3.6719E-03
   9    9.997       8.976       7.937       6.884       5.819       4.742       3.636       2.481       1.269      3.7908E-03
  10    9.998       9.001       7.987       6.954       5.899       4.819       3.699       2.525       1.290      3.8561E-03

 HEAD WILL BE SAVED ON UNIT   51 AT END OF TIME STEP   43, STRESS PERIOD    5

 DRAWDOWN WILL BE SAVED ON UNIT   52 AT END OF TIME STEP   43, STRESS PERIOD    5
1
  VOLUMETRIC BUDGET FOR ENTIRE MODEL AT END OF TIME STEP   43, STRESS PERIOD   5
  ------------------------------------------------------------------------------

     CUMULATIVE VOLUMES      L**3       RATES FOR THIS TIME STEP      L**3/T
     ------------------                 ------------------------

           IN:                                      IN:
           ---                                      ---
             STORAGE =      531785.6250               STORAGE =         102.6844
       CONSTANT HEAD =           0.0000         CONSTANT HEAD =           0.0000
               WELLS =           0.0000                 WELLS =           0.0000
     HEAD DEP BOUNDS =      109536.7969       HEAD DEP BOUNDS =         660.4268

            TOTAL IN =      641322.4375              TOTAL IN =         763.1112

          OUT:                                     OUT:
          ----                                     ----
             STORAGE =       11270.7070               STORAGE =         162.0332
       CONSTANT HEAD =           0.0000         CONSTANT HEAD =           0.0000
               WELLS =      100000.0000                 WELLS =           0.0000
     HEAD DEP BOUNDS =      530053.5625       HEAD DEP BOUNDS =         601.0723

           TOTAL OUT =      641324.2500             TOTAL OUT =         763.1055

            IN - OUT =          -1.8125              IN - OUT =       5.7373E-03

 PERCENT DISCREPANCY =          -0.00     PERCENT DISCREPANCY =           0.00






         TIME SUMMARY AT END OF TIME STEP   43 IN STRESS PERIOD    5
                    SECONDS     MINUTES      HOURS       DAYS        YEARS
                    -----------------------------------------------------------
   TIME STEP LENGTH  86400.      1440.0      24.000      1.0000     2.73785E-03
 STRESS PERIOD TIME 3.71520E+06  61920.      1032.0      43.000     0.11773    
         TOTAL TIME 2.97216E+07 4.95360E+05  8256.0      344.00     0.94182    
1
 
 SOLVING FOR HEAD 

 OUTPUT CONTROL FOR STRESS PERIOD    5   TIME STEP   44
    SAVE HEAD FOR ALL LAYERS
    SAVE DRAWDOWN FOR ALL LAYERS
    SAVE BUDGET
    PRINT HEAD FOR ALL LAYERS
    PRINT BUDGET
 UBDSV1 SAVING "         STORAGE" ON UNIT  53 AT TIME STEP 44, STRESS PERIOD   5
 UBDSV2 SAVING "   CONSTANT HEAD" ON UNIT  53 AT TIME STEP 44, STRESS PERIOD   5
 UBDSV1 SAVING "FLOW RIGHT FACE " ON UNIT  53 AT TIME STEP 44, STRESS PERIOD   5
 UBDSV1 SAVING "FLOW FRONT FACE " ON UNIT  53 AT TIME STEP 44, STRESS PERIOD   5
 UBDSV1 SAVING "FLOW LOWER FACE " ON UNIT  53 AT TIME STEP 44, STRESS PERIOD   5
1
              HEAD IN LAYER   1 AT END OF TIME STEP  44 IN STRESS PERIOD    5
  ---------------------------------------------------------------------------

            1           2           3           4           5           6           7           8           9          10
 ........................................................................................................................
   1    9.997       8.917       7.823       6.726       5.640       4.566       3.488       2.377       1.216      1.6769E-03
   2    9.997       8.891       7.770       6.650       5.551       4.483       3.422       2.334       1.194      1.6462E-03
   3    9.997       8.849       7.684       6.524       5.404       4.344       3.314       2.264       1.161      1.5971E-03
   4    9.997       8.809       7.602       6.403       5.262       4.211       3.212       2.199       1.130      1.5529E-03
   5    9.997       8.796       7.574       6.360       5.210       4.163       3.177       2.178       1.121      1.5391E-03
   6    9.997       8.821       7.623       6.433       5.296       4.244       3.241       2.220       1.141      1.5690E-03
   7    9.997       8.873       7.730       6.587       5.476       4.415       3.375       2.308       1.185      1.6320E-03
   8    9.997       8.932       7.848       6.757       5.673       4.602       3.525       2.408       1.234      1.7040E-03
   9    9.998       8.980       7.943       6.890       5.826       4.749       3.644       2.489       1.274      1.7633E-03
  10    9.998       9.005       7.993       6.961       5.908       4.828       3.708       2.533       1.297      1.7958E-03
1
              HEAD IN LAYER   2 AT END OF TIME STEP  44 IN STRESS PERIOD    5
  ---------------------------------------------------------------------------

            1           2           3           4           5           6           7           8           9          10
 ........................................................................................................................
   1    9.997       8.915       7.820       6.723       5.636       4.562       3.483       2.372       1.212      3.3304E-03
   2    9.997       8.889       7.768       6.648       5.550       4.480       3.418       2.330       1.192      3.2733E-03
   3    9.997       8.848       7.684       6.526       5.408       4.346       3.313       2.261       1.159      3.1821E-03
   4    9.997       8.810       7.606       6.411       5.271       4.218       3.215       2.199       1.129      3.0996E-03
   5    9.997       8.797       7.578       6.369       5.222       4.172       3.181       2.178       1.119      3.0743E-03
   6    9.997       8.821       7.627       6.440       5.305       4.251       3.243       2.219       1.140      3.1304E-03
   7    9.997       8.872       7.731       6.590       5.480       4.417       3.375       2.306       1.182      3.2480E-03
   8    9.997       8.930       7.846       6.755       5.671       4.600       3.521       2.405       1.231      3.3824E-03
   9    9.997       8.977       7.939       6.886       5.822       4.744       3.638       2.484       1.271      3.4927E-03
  10    9.998       9.003       7.989       6.956       5.902       4.821       3.702       2.528       1.293      3.5533E-03
1
              HEAD IN LAYER   3 AT END OF TIME STEP  44 IN STRESS PERIOD    5
  ---------------------------------------------------------------------------

            1           2           3           4           5           6           7           8           9          10
 ........................................................................................................................
   1    9.997       8.913       7.818       6.720       5.633       4.558       3.479       2.368       1.209      3.5864E-03
   2    9.997       8.888       7.767       6.647       5.549       4.478       3.416       2.327       1.189      3.5259E-03
   3    9.997       8.848       7.685       6.528       5.410       4.347       3.313       2.259       1.156      3.4294E-03
   4    9.997       8.810       7.608       6.416       5.278       4.223       3.217       2.198       1.127      3.3424E-03
   5    9.997       8.798       7.582       6.376       5.231       4.179       3.184       2.178       1.118      3.3160E-03
   6    9.997       8.821       7.630       6.445       5.312       4.256       3.245       2.219       1.138      3.3755E-03
   7    9.997       8.872       7.731       6.592       5.482       4.418       3.374       2.304       1.180      3.5002E-03
   8    9.997       8.929       7.845       6.754       5.670       4.598       3.518       2.401       1.229      3.6431E-03
   9    9.997       8.976       7.937       6.883       5.818       4.740       3.634       2.480       1.268      3.7605E-03
  10    9.998       9.001       7.986       6.952       5.897       4.816       3.697       2.523       1.290      3.8251E-03
1
              HEAD IN LAYER   4 AT END OF TIME STEP  44 IN STRESS PERIOD    5
  ---------------------------------------------------------------------------

            1           2           3           4           5           6           7           8           9          10
 ........................................................................................................................
   1    9.997       8.913       7.816       6.719       5.631       4.556       3.477       2.366       1.208      3.6099E-03
   2    9.997       8.888       7.766       6.647       5.548       4.477       3.414       2.325       1.188      3.5494E-03
   3    9.997       8.847       7.685       6.529       5.412       4.348       3.312       2.259       1.155      3.4530E-03
   4    9.997       8.810       7.609       6.419       5.282       4.226       3.218       2.198       1.126      3.3663E-03
   5    9.997       8.798       7.584       6.380       5.236       4.183       3.186       2.179       1.118      3.3401E-03
   6    9.997       8.822       7.631       6.448       5.315       4.259       3.246       2.219       1.138      3.3996E-03
   7    9.997       8.872       7.731       6.592       5.483       4.419       3.374       2.304       1.179      3.5244E-03
   8    9.997       8.929       7.844       6.753       5.669       4.597       3.517       2.400       1.227      3.6674E-03
   9    9.997       8.975       7.935       6.881       5.816       4.738       3.632       2.478       1.267      3.7851E-03
  10    9.998       9.000       7.985       6.950       5.895       4.814       3.694       2.521       1.288      3.8499E-03

 HEAD WILL BE SAVED ON UNIT   51 AT END OF TIME STEP   44, STRESS PERIOD    5

 DRAWDOWN WILL BE SAVED ON UNIT   52 AT END OF TIME STEP   44, STRESS PERIOD    5
1
  VOLUMETRIC BUDGET FOR ENTIRE MODEL AT END OF TIME STEP   44, STRESS PERIOD   5
  ------------------------------------------------------------------------------

     CUMULATIVE VOLUMES      L**3       RATES FOR THIS TIME STEP      L**3/T
     ------------------                 ------------------------

           IN:                                      IN:
           ---                                      ---
             STORAGE =      531884.8125               STORAGE =          99.2148
       CONSTANT HEAD =           0.0000         CONSTANT HEAD =           0.0000
               WELLS =           0.0000                 WELLS =           0.0000
     HEAD DEP BOUNDS =      110197.0156       HEAD DEP BOUNDS =         660.2148

            TOTAL IN =      642081.8125              TOTAL IN =         759.4296

          OUT:                                     OUT:
          ----                                     ----
             STORAGE =       11429.6914               STORAGE =         158.9845
       CONSTANT HEAD =           0.0000         CONSTANT HEAD =           0.0000
               WELLS =      100000.0000                 WELLS =           0.0000
     HEAD DEP BOUNDS =      530654.0000       HEAD DEP BOUNDS =         600.4610

           TOTAL OUT =      642083.6875             TOTAL OUT =         759.4454

            IN - OUT =          -1.8750              IN - OUT =      -1.5808E-02

 PERCENT DISCREPANCY =          -0.00     PERCENT DISCREPANCY =          -0.00






         TIME SUMMARY AT END OF TIME STEP   44 IN STRESS PERIOD    5
                    SECONDS     MINUTES      HOURS       DAYS        YEARS
                    -----------------------------------------------------------
   TIME STEP LENGTH  86400.      1440.0      24.000      1.0000     2.73785E-03
 STRESS PERIOD TIME 3.80160E+06  63360.      1056.0      44.000     0.12047    
         TOTAL TIME 2.98080E+07 4.96800E+05  8280.0      345.00     0.94456    
1
 
 SOLVING FOR HEAD 

 OUTPUT CONTROL FOR STRESS PERIOD    5   TIME STEP   45
    SAVE HEAD FOR ALL LAYERS
    SAVE DRAWDOWN FOR ALL LAYERS
    SAVE BUDGET
    PRINT HEAD FOR ALL LAYERS
    PRINT BUDGET
 UBDSV1 SAVING "         STORAGE" ON UNIT  53 AT TIME STEP 45, STRESS PERIOD   5
 UBDSV2 SAVING "   CONSTANT HEAD" ON UNIT  53 AT TIME STEP 45, STRESS PERIOD   5
 UBDSV1 SAVING "FLOW RIGHT FACE " ON UNIT  53 AT TIME STEP 45, STRESS PERIOD   5
 UBDSV1 SAVING "FLOW FRONT FACE " ON UNIT  53 AT TIME STEP 45, STRESS PERIOD   5
 UBDSV1 SAVING "FLOW LOWER FACE " ON UNIT  53 AT TIME STEP 45, STRESS PERIOD   5
1
              HEAD IN LAYER   1 AT END OF TIME STEP  45 IN STRESS PERIOD    5
  ---------------------------------------------------------------------------

            1           2           3           4           5           6           7           8           9          10
 ........................................................................................................................
   1    9.997       8.916       7.821       6.724       5.637       4.563       3.484       2.374       1.214      1.6740E-03
   2    9.997       8.891       7.770       6.650       5.551       4.481       3.420       2.331       1.193      1.6439E-03
   3    9.997       8.849       7.686       6.528       5.409       4.347       3.314       2.263       1.160      1.5957E-03
   4    9.997       8.811       7.607       6.412       5.272       4.219       3.216       2.200       1.130      1.5522E-03
   5    9.997       8.798       7.580       6.370       5.223       4.173       3.182       2.179       1.120      1.5390E-03
   6    9.997       8.822       7.628       6.441       5.306       4.252       3.244       2.221       1.141      1.5684E-03
   7    9.997       8.874       7.732       6.591       5.481       4.418       3.376       2.308       1.184      1.6305E-03
   8    9.997       8.932       7.848       6.756       5.672       4.601       3.522       2.406       1.232      1.7017E-03
   9    9.998       8.978       7.941       6.887       5.823       4.745       3.640       2.486       1.272      1.7604E-03
  10    9.998       9.004       7.991       6.957       5.903       4.823       3.703       2.529       1.294      1.7927E-03
1
              HEAD IN LAYER   2 AT END OF TIME STEP  45 IN STRESS PERIOD    5
  ---------------------------------------------------------------------------

            1           2           3           4           5           6           7           8           9          10
 ........................................................................................................................
   1    9.997       8.914       7.818       6.721       5.633       4.559       3.479       2.369       1.210      3.3252E-03
   2    9.997       8.889       7.768       6.648       5.550       4.479       3.416       2.328       1.190      3.2689E-03
   3    9.997       8.849       7.686       6.530       5.412       4.349       3.314       2.260       1.158      3.1793E-03
   4    9.997       8.812       7.610       6.418       5.281       4.225       3.218       2.199       1.128      3.0986E-03
   5    9.997       8.799       7.584       6.379       5.234       4.182       3.186       2.180       1.119      3.0741E-03
   6    9.997       8.823       7.632       6.448       5.314       4.258       3.247       2.220       1.139      3.1295E-03
   7    9.997       8.873       7.733       6.593       5.484       4.420       3.375       2.305       1.181      3.2453E-03
   8    9.997       8.930       7.846       6.755       5.671       4.599       3.519       2.402       1.230      3.3782E-03
   9    9.997       8.976       7.937       6.883       5.818       4.741       3.635       2.481       1.269      3.4874E-03
  10    9.998       9.001       7.986       6.952       5.897       4.817       3.697       2.524       1.291      3.5476E-03
1
              HEAD IN LAYER   3 AT END OF TIME STEP  45 IN STRESS PERIOD    5
  ---------------------------------------------------------------------------

            1           2           3           4           5           6           7           8           9          10
 ........................................................................................................................
   1    9.997       8.913       7.816       6.718       5.630       4.555       3.475       2.365       1.208      3.5809E-03
   2    9.997       8.888       7.767       6.647       5.549       4.477       3.414       2.324       1.187      3.5213E-03
   3    9.997       8.848       7.687       6.532       5.415       4.350       3.313       2.259       1.156      3.4265E-03
   4    9.997       8.812       7.613       6.424       5.288       4.230       3.220       2.199       1.127      3.3414E-03
   5    9.997       8.800       7.588       6.386       5.243       4.189       3.189       2.180       1.118      3.3159E-03
   6    9.997       8.823       7.634       6.453       5.321       4.263       3.249       2.220       1.138      3.3746E-03
   7    9.997       8.873       7.733       6.595       5.486       4.421       3.375       2.304       1.179      3.4975E-03
   8    9.997       8.929       7.845       6.754       5.670       4.597       3.516       2.399       1.227      3.6386E-03
   9    9.997       8.974       7.935       6.880       5.815       4.737       3.630       2.477       1.266      3.7549E-03
  10    9.998       8.999       7.983       6.948       5.893       4.812       3.692       2.520       1.288      3.8190E-03
1
              HEAD IN LAYER   4 AT END OF TIME STEP  45 IN STRESS PERIOD    5
  ---------------------------------------------------------------------------

            1           2           3           4           5           6           7           8           9          10
 ........................................................................................................................
   1    9.997       8.912       7.815       6.717       5.629       4.553       3.473       2.363       1.206      3.6044E-03
   2    9.997       8.887       7.766       6.647       5.548       4.476       3.412       2.323       1.186      3.5448E-03
   3    9.997       8.848       7.687       6.533       5.416       4.351       3.313       2.258       1.155      3.4501E-03
   4    9.997       8.812       7.614       6.426       5.291       4.233       3.221       2.198       1.126      3.3653E-03
   5    9.997       8.801       7.589       6.389       5.247       4.192       3.191       2.180       1.118      3.3400E-03
   6    9.997       8.824       7.635       6.456       5.324       4.266       3.250       2.220       1.137      3.3988E-03
   7    9.997       8.872       7.733       6.596       5.488       4.422       3.375       2.303       1.178      3.5217E-03
   8    9.997       8.928       7.844       6.753       5.669       4.596       3.515       2.398       1.226      3.6630E-03
   9    9.997       8.974       7.933       6.879       5.813       4.735       3.628       2.475       1.265      3.7795E-03
  10    9.998       8.998       7.982       6.946       5.891       4.809       3.690       2.517       1.286      3.8437E-03

 HEAD WILL BE SAVED ON UNIT   51 AT END OF TIME STEP   45, STRESS PERIOD    5

 DRAWDOWN WILL BE SAVED ON UNIT   52 AT END OF TIME STEP   45, STRESS PERIOD    5
1
  VOLUMETRIC BUDGET FOR ENTIRE MODEL AT END OF TIME STEP   45, STRESS PERIOD   5
  ------------------------------------------------------------------------------

     CUMULATIVE VOLUMES      L**3       RATES FOR THIS TIME STEP      L**3/T
     ------------------                 ------------------------

           IN:                                      IN:
           ---                                      ---
             STORAGE =      531980.6250               STORAGE =          95.8345
       CONSTANT HEAD =           0.0000         CONSTANT HEAD =           0.0000
               WELLS =           0.0000                 WELLS =           0.0000
     HEAD DEP BOUNDS =      110857.0391       HEAD DEP BOUNDS =         660.0221

            TOTAL IN =      642837.6875              TOTAL IN =         755.8566

          OUT:                                     OUT:
          ----                                     ----
             STORAGE =       11585.6709               STORAGE =         155.9795
       CONSTANT HEAD =           0.0000         CONSTANT HEAD =           0.0000
               WELLS =      100000.0000                 WELLS =           0.0000
     HEAD DEP BOUNDS =      531253.8750       HEAD DEP BOUNDS =         599.8728

           TOTAL OUT =      642839.5625             TOTAL OUT =         755.8523

            IN - OUT =          -1.8750              IN - OUT =       4.2725E-03

 PERCENT DISCREPANCY =          -0.00     PERCENT DISCREPANCY =           0.00






         TIME SUMMARY AT END OF TIME STEP   45 IN STRESS PERIOD    5
                    SECONDS     MINUTES      HOURS       DAYS        YEARS
                    -----------------------------------------------------------
   TIME STEP LENGTH  86400.      1440.0      24.000      1.0000     2.73785E-03
 STRESS PERIOD TIME 3.88800E+06  64800.      1080.0      45.000     0.12320    
         TOTAL TIME 2.98944E+07 4.98240E+05  8304.0      346.00     0.94730    
1
 
 SOLVING FOR HEAD 

 OUTPUT CONTROL FOR STRESS PERIOD    5   TIME STEP   46
    SAVE HEAD FOR ALL LAYERS
    SAVE DRAWDOWN FOR ALL LAYERS
    SAVE BUDGET
    PRINT HEAD FOR ALL LAYERS
    PRINT BUDGET
 UBDSV1 SAVING "         STORAGE" ON UNIT  53 AT TIME STEP 46, STRESS PERIOD   5
 UBDSV2 SAVING "   CONSTANT HEAD" ON UNIT  53 AT TIME STEP 46, STRESS PERIOD   5
 UBDSV1 SAVING "FLOW RIGHT FACE " ON UNIT  53 AT TIME STEP 46, STRESS PERIOD   5
 UBDSV1 SAVING "FLOW FRONT FACE " ON UNIT  53 AT TIME STEP 46, STRESS PERIOD   5
 UBDSV1 SAVING "FLOW LOWER FACE " ON UNIT  53 AT TIME STEP 46, STRESS PERIOD   5
1
              HEAD IN LAYER   1 AT END OF TIME STEP  46 IN STRESS PERIOD    5
  ---------------------------------------------------------------------------

            1           2           3           4           5           6           7           8           9          10
 ........................................................................................................................
   1    9.997       8.916       7.820       6.722       5.635       4.560       3.481       2.370       1.212      1.6712E-03
   2    9.997       8.891       7.769       6.650       5.551       4.480       3.417       2.329       1.191      1.6416E-03
   3    9.997       8.850       7.688       6.531       5.413       4.350       3.315       2.262       1.159      1.5942E-03
   4    9.997       8.813       7.611       6.419       5.282       4.226       3.219       2.200       1.129      1.5518E-03
   5    9.997       8.801       7.585       6.380       5.235       4.182       3.187       2.181       1.120      1.5389E-03
   6    9.997       8.824       7.633       6.449       5.315       4.259       3.248       2.221       1.141      1.5680E-03
   7    9.997       8.874       7.734       6.594       5.485       4.421       3.376       2.307       1.183      1.6292E-03
   8    9.997       8.931       7.847       6.756       5.672       4.600       3.520       2.404       1.231      1.6994E-03
   9    9.998       8.977       7.938       6.885       5.820       4.742       3.636       2.482       1.271      1.7576E-03
  10    9.998       9.002       7.988       6.954       5.899       4.818       3.698       2.525       1.292      1.7896E-03
1
              HEAD IN LAYER   2 AT END OF TIME STEP  46 IN STRESS PERIOD    5
  ---------------------------------------------------------------------------

            1           2           3           4           5           6           7           8           9          10
 ........................................................................................................................
   1    9.997       8.913       7.817       6.719       5.631       4.556       3.476       2.366       1.209      3.3200E-03
   2    9.997       8.889       7.768       6.648       5.550       4.478       3.414       2.325       1.189      3.2647E-03
   3    9.997       8.850       7.688       6.534       5.416       4.351       3.314       2.260       1.157      3.1766E-03
   4    9.997       8.814       7.615       6.426       5.290       4.232       3.222       2.200       1.128      3.0977E-03
   5    9.997       8.802       7.590       6.389       5.246       4.191       3.191       2.181       1.119      3.0740E-03
   6    9.997       8.825       7.636       6.455       5.324       4.265       3.250       2.221       1.139      3.1286E-03
   7    9.997       8.874       7.735       6.597       5.488       4.423       3.376       2.305       1.181      3.2428E-03
   8    9.997       8.930       7.846       6.755       5.671       4.598       3.517       2.400       1.228      3.3740E-03
   9    9.997       8.975       7.935       6.881       5.815       4.737       3.631       2.478       1.267      3.4822E-03
  10    9.998       9.000       7.984       6.948       5.893       4.812       3.692       2.520       1.289      3.5418E-03
1
              HEAD IN LAYER   3 AT END OF TIME STEP  46 IN STRESS PERIOD    5
  ---------------------------------------------------------------------------

            1           2           3           4           5           6           7           8           9          10
 ........................................................................................................................
   1    9.997       8.912       7.815       6.716       5.628       4.552       3.472       2.362       1.206      3.5755E-03
   2    9.997       8.888       7.766       6.647       5.549       4.476       3.412       2.322       1.186      3.5169E-03
   3    9.997       8.849       7.689       6.536       5.419       4.353       3.314       2.258       1.155      3.4238E-03
   4    9.997       8.814       7.617       6.431       5.297       4.237       3.224       2.199       1.127      3.3405E-03
   5    9.997       8.803       7.593       6.395       5.254       4.198       3.194       2.181       1.118      3.3159E-03
   6    9.997       8.825       7.639       6.461       5.330       4.271       3.252       2.221       1.138      3.3739E-03
   7    9.997       8.873       7.735       6.599       5.491       4.424       3.376       2.303       1.179      3.4950E-03
   8    9.997       8.928       7.844       6.754       5.670       4.596       3.514       2.397       1.226      3.6343E-03
   9    9.997       8.973       7.933       6.878       5.812       4.733       3.627       2.474       1.264      3.7494E-03
  10    9.998       8.998       7.981       6.945       5.889       4.807       3.688       2.516       1.286      3.8129E-03
1
              HEAD IN LAYER   4 AT END OF TIME STEP  46 IN STRESS PERIOD    5
  ---------------------------------------------------------------------------

            1           2           3           4           5           6           7           8           9          10
 ........................................................................................................................
   1    9.997       8.911       7.813       6.715       5.627       4.550       3.470       2.360       1.204      3.5990E-03
   2    9.997       8.887       7.766       6.647       5.548       4.476       3.410       2.321       1.185      3.5404E-03
   3    9.997       8.849       7.689       6.536       5.420       4.354       3.314       2.257       1.154      3.4475E-03
   4    9.997       8.814       7.618       6.434       5.300       4.240       3.225       2.199       1.126      3.3645E-03
   5    9.997       8.803       7.595       6.399       5.259       4.201       3.196       2.181       1.118      3.3401E-03
   6    9.997       8.826       7.640       6.463       5.333       4.273       3.253       2.220       1.137      3.3981E-03
   7    9.997       8.873       7.736       6.600       5.492       4.425       3.375       2.302       1.178      3.5192E-03
   8    9.997       8.928       7.844       6.753       5.669       4.595       3.513       2.395       1.224      3.6587E-03
   9    9.997       8.973       7.932       6.876       5.810       4.731       3.625       2.472       1.263      3.7740E-03
  10    9.997       8.997       7.979       6.943       5.886       4.805       3.685       2.514       1.284      3.8377E-03

 HEAD WILL BE SAVED ON UNIT   51 AT END OF TIME STEP   46, STRESS PERIOD    5

 DRAWDOWN WILL BE SAVED ON UNIT   52 AT END OF TIME STEP   46, STRESS PERIOD    5
1
  VOLUMETRIC BUDGET FOR ENTIRE MODEL AT END OF TIME STEP   46, STRESS PERIOD   5
  ------------------------------------------------------------------------------

     CUMULATIVE VOLUMES      L**3       RATES FOR THIS TIME STEP      L**3/T
     ------------------                 ------------------------

           IN:                                      IN:
           ---                                      ---
             STORAGE =      532073.1875               STORAGE =          92.5354
       CONSTANT HEAD =           0.0000         CONSTANT HEAD =           0.0000
               WELLS =           0.0000                 WELLS =           0.0000
     HEAD DEP BOUNDS =      111516.8281       HEAD DEP BOUNDS =         659.7924

            TOTAL IN =      643590.0000              TOTAL IN =         752.3278

          OUT:                                     OUT:
          ----                                     ----
             STORAGE =       11738.7021               STORAGE =         153.0309
       CONSTANT HEAD =           0.0000         CONSTANT HEAD =           0.0000
               WELLS =      100000.0000                 WELLS =           0.0000
     HEAD DEP BOUNDS =      531853.1875       HEAD DEP BOUNDS =         599.3065

           TOTAL OUT =      643591.8750             TOTAL OUT =         752.3374

            IN - OUT =          -1.8750              IN - OUT =      -9.6436E-03

 PERCENT DISCREPANCY =          -0.00     PERCENT DISCREPANCY =          -0.00






         TIME SUMMARY AT END OF TIME STEP   46 IN STRESS PERIOD    5
                    SECONDS     MINUTES      HOURS       DAYS        YEARS
                    -----------------------------------------------------------
   TIME STEP LENGTH  86400.      1440.0      24.000      1.0000     2.73785E-03
 STRESS PERIOD TIME 3.97440E+06  66240.      1104.0      46.000     0.12594    
         TOTAL TIME 2.99808E+07 4.99680E+05  8328.0      347.00     0.95003    
1
 
 SOLVING FOR HEAD 

 OUTPUT CONTROL FOR STRESS PERIOD    5   TIME STEP   47
    SAVE HEAD FOR ALL LAYERS
    SAVE DRAWDOWN FOR ALL LAYERS
    SAVE BUDGET
    PRINT HEAD FOR ALL LAYERS
    PRINT BUDGET
 UBDSV1 SAVING "         STORAGE" ON UNIT  53 AT TIME STEP 47, STRESS PERIOD   5
 UBDSV2 SAVING "   CONSTANT HEAD" ON UNIT  53 AT TIME STEP 47, STRESS PERIOD   5
 UBDSV1 SAVING "FLOW RIGHT FACE " ON UNIT  53 AT TIME STEP 47, STRESS PERIOD   5
 UBDSV1 SAVING "FLOW FRONT FACE " ON UNIT  53 AT TIME STEP 47, STRESS PERIOD   5
 UBDSV1 SAVING "FLOW LOWER FACE " ON UNIT  53 AT TIME STEP 47, STRESS PERIOD   5
1
              HEAD IN LAYER   1 AT END OF TIME STEP  47 IN STRESS PERIOD    5
  ---------------------------------------------------------------------------

            1           2           3           4           5           6           7           8           9          10
 ........................................................................................................................
   1    9.997       8.915       7.818       6.720       5.632       4.557       3.477       2.367       1.210      1.6685E-03
   2    9.997       8.890       7.769       6.650       5.551       4.479       3.415       2.326       1.190      1.6393E-03
   3    9.997       8.851       7.690       6.535       5.417       4.353       3.315       2.261       1.158      1.5929E-03
   4    9.997       8.815       7.616       6.427       5.291       4.233       3.223       2.201       1.129      1.5513E-03
   5    9.997       8.803       7.591       6.390       5.246       4.192       3.192       2.182       1.120      1.5389E-03
   6    9.997       8.826       7.637       6.456       5.324       4.266       3.251       2.222       1.140      1.5675E-03
   7    9.997       8.875       7.736       6.598       5.489       4.424       3.377       2.306       1.182      1.6278E-03
   8    9.997       8.931       7.847       6.756       5.672       4.599       3.518       2.401       1.229      1.6973E-03
   9    9.998       8.976       7.937       6.882       5.817       4.738       3.632       2.479       1.269      1.7548E-03
  10    9.998       9.001       7.985       6.950       5.894       4.813       3.694       2.522       1.290      1.7866E-03
1
              HEAD IN LAYER   2 AT END OF TIME STEP  47 IN STRESS PERIOD    5
  ---------------------------------------------------------------------------

            1           2           3           4           5           6           7           8           9          10
 ........................................................................................................................
   1    9.997       8.912       7.815       6.717       5.629       4.553       3.473       2.363       1.207      3.3150E-03
   2    9.997       8.889       7.767       6.648       5.550       4.477       3.412       2.323       1.187      3.2606E-03
   3    9.997       8.850       7.690       6.537       5.420       4.354       3.315       2.259       1.156      3.1741E-03
   4    9.997       8.816       7.619       6.434       5.299       4.239       3.225       2.201       1.128      3.0969E-03
   5    9.997       8.804       7.596       6.398       5.257       4.200       3.196       2.182       1.119      3.0741E-03
   6    9.997       8.827       7.641       6.463       5.332       4.272       3.254       2.222       1.139      3.1279E-03
   7    9.997       8.875       7.737       6.601       5.492       4.426       3.377       2.304       1.180      3.2405E-03
   8    9.997       8.929       7.845       6.755       5.670       4.597       3.515       2.398       1.227      3.3700E-03
   9    9.997       8.974       7.933       6.878       5.812       4.734       3.627       2.475       1.265      3.4771E-03
  10    9.998       8.998       7.981       6.945       5.889       4.807       3.688       2.517       1.287      3.5362E-03
1
              HEAD IN LAYER   3 AT END OF TIME STEP  47 IN STRESS PERIOD    5
  ---------------------------------------------------------------------------

            1           2           3           4           5           6           7           8           9          10
 ........................................................................................................................
   1    9.997       8.911       7.813       6.714       5.626       4.549       3.469       2.359       1.204      3.5702E-03
   2    9.997       8.887       7.766       6.647       5.549       4.476       3.410       2.320       1.185      3.5126E-03
   3    9.997       8.850       7.691       6.539       5.423       4.356       3.315       2.257       1.154      3.4212E-03
   4    9.997       8.816       7.622       6.439       5.305       4.244       3.227       2.200       1.126      3.3398E-03
   5    9.997       8.805       7.599       6.405       5.265       4.207       3.199       2.183       1.118      3.3160E-03
   6    9.997       8.827       7.643       6.468       5.339       4.277       3.256       2.221       1.138      3.3732E-03
   7    9.997       8.874       7.737       6.602       5.495       4.427       3.376       2.302       1.178      3.4925E-03
   8    9.997       8.928       7.844       6.754       5.669       4.595       3.513       2.395       1.224      3.6301E-03
   9    9.997       8.972       7.931       6.875       5.809       4.730       3.623       2.471       1.263      3.7440E-03
  10    9.997       8.997       7.978       6.941       5.885       4.803       3.683       2.513       1.284      3.8069E-03
1
              HEAD IN LAYER   4 AT END OF TIME STEP  47 IN STRESS PERIOD    5
  ---------------------------------------------------------------------------

            1           2           3           4           5           6           7           8           9          10
 ........................................................................................................................
   1    9.997       8.910       7.812       6.713       5.624       4.548       3.467       2.358       1.203      3.5938E-03
   2    9.997       8.887       7.766       6.647       5.548       4.475       3.409       2.318       1.183      3.5361E-03
   3    9.997       8.850       7.691       6.540       5.424       4.356       3.314       2.256       1.153      3.4449E-03
   4    9.997       8.816       7.623       6.441       5.308       4.247       3.228       2.200       1.126      3.3638E-03
   5    9.997       8.805       7.601       6.408       5.269       4.210       3.200       2.183       1.118      3.3402E-03
   6    9.997       8.827       7.644       6.470       5.342       4.280       3.257       2.221       1.137      3.3975E-03
   7    9.997       8.874       7.738       6.603       5.496       4.428       3.376       2.301       1.177      3.5168E-03
   8    9.997       8.928       7.844       6.753       5.669       4.594       3.511       2.393       1.223      3.6545E-03
   9    9.997       8.972       7.930       6.874       5.807       4.728       3.621       2.469       1.261      3.7686E-03
  10    9.997       8.996       7.977       6.939       5.882       4.800       3.681       2.510       1.282      3.8317E-03

 HEAD WILL BE SAVED ON UNIT   51 AT END OF TIME STEP   47, STRESS PERIOD    5

 DRAWDOWN WILL BE SAVED ON UNIT   52 AT END OF TIME STEP   47, STRESS PERIOD    5
1
  VOLUMETRIC BUDGET FOR ENTIRE MODEL AT END OF TIME STEP   47, STRESS PERIOD   5
  ------------------------------------------------------------------------------

     CUMULATIVE VOLUMES      L**3       RATES FOR THIS TIME STEP      L**3/T
     ------------------                 ------------------------

           IN:                                      IN:
           ---                                      ---
             STORAGE =      532162.5000               STORAGE =          89.3179
       CONSTANT HEAD =           0.0000         CONSTANT HEAD =           0.0000
               WELLS =           0.0000                 WELLS =           0.0000
     HEAD DEP BOUNDS =      112176.3906       HEAD DEP BOUNDS =         659.5587

            TOTAL IN =      644338.8750              TOTAL IN =         748.8765

          OUT:                                     OUT:
          ----                                     ----
             STORAGE =       11888.8291               STORAGE =         150.1266
       CONSTANT HEAD =           0.0000         CONSTANT HEAD =           0.0000
               WELLS =      100000.0000                 WELLS =           0.0000
     HEAD DEP BOUNDS =      532451.9375       HEAD DEP BOUNDS =         598.7591

           TOTAL OUT =      644340.7500             TOTAL OUT =         748.8856

            IN - OUT =          -1.8750              IN - OUT =      -9.0942E-03

 PERCENT DISCREPANCY =          -0.00     PERCENT DISCREPANCY =          -0.00






         TIME SUMMARY AT END OF TIME STEP   47 IN STRESS PERIOD    5
                    SECONDS     MINUTES      HOURS       DAYS        YEARS
                    -----------------------------------------------------------
   TIME STEP LENGTH  86400.      1440.0      24.000      1.0000     2.73785E-03
 STRESS PERIOD TIME 4.06080E+06  67680.      1128.0      47.000     0.12868    
         TOTAL TIME 3.00672E+07 5.01120E+05  8352.0      348.00     0.95277    
1
 
 SOLVING FOR HEAD 

 OUTPUT CONTROL FOR STRESS PERIOD    5   TIME STEP   48
    SAVE HEAD FOR ALL LAYERS
    SAVE DRAWDOWN FOR ALL LAYERS
    SAVE BUDGET
    PRINT HEAD FOR ALL LAYERS
    PRINT BUDGET
 UBDSV1 SAVING "         STORAGE" ON UNIT  53 AT TIME STEP 48, STRESS PERIOD   5
 UBDSV2 SAVING "   CONSTANT HEAD" ON UNIT  53 AT TIME STEP 48, STRESS PERIOD   5
 UBDSV1 SAVING "FLOW RIGHT FACE " ON UNIT  53 AT TIME STEP 48, STRESS PERIOD   5
 UBDSV1 SAVING "FLOW FRONT FACE " ON UNIT  53 AT TIME STEP 48, STRESS PERIOD   5
 UBDSV1 SAVING "FLOW LOWER FACE " ON UNIT  53 AT TIME STEP 48, STRESS PERIOD   5
1
              HEAD IN LAYER   1 AT END OF TIME STEP  48 IN STRESS PERIOD    5
  ---------------------------------------------------------------------------

            1           2           3           4           5           6           7           8           9          10
 ........................................................................................................................
   1    9.997       8.914       7.817       6.718       5.630       4.554       3.474       2.364       1.208      1.6660E-03
   2    9.997       8.890       7.769       6.650       5.551       4.479       3.414       2.324       1.188      1.6372E-03
   3    9.997       8.852       7.692       6.538       5.422       4.355       3.316       2.260       1.157      1.5915E-03
   4    9.997       8.817       7.620       6.435       5.300       4.240       3.226       2.202       1.129      1.5509E-03
   5    9.997       8.806       7.597       6.399       5.258       4.201       3.197       2.184       1.120      1.5389E-03
   6    9.997       8.828       7.642       6.464       5.333       4.273       3.255       2.223       1.140      1.5672E-03
   7    9.997       8.876       7.738       6.602       5.494       4.427       3.378       2.305       1.181      1.6266E-03
   8    9.997       8.931       7.847       6.756       5.672       4.598       3.516       2.399       1.228      1.6952E-03
   9    9.998       8.975       7.935       6.880       5.814       4.735       3.628       2.476       1.267      1.7521E-03
  10    9.998       9.000       7.982       6.946       5.890       4.809       3.689       2.518       1.288      1.7835E-03
1
              HEAD IN LAYER   2 AT END OF TIME STEP  48 IN STRESS PERIOD    5
  ---------------------------------------------------------------------------

            1           2           3           4           5           6           7           8           9          10
 ........................................................................................................................
   1    9.997       8.912       7.814       6.715       5.626       4.550       3.469       2.360       1.205      3.3102E-03
   2    9.997       8.888       7.767       6.649       5.550       4.476       3.411       2.321       1.186      3.2566E-03
   3    9.997       8.851       7.692       6.541       5.425       4.357       3.316       2.258       1.155      3.1718E-03
   4    9.997       8.817       7.624       6.441       5.308       4.246       3.229       2.201       1.127      3.0962E-03
   5    9.997       8.807       7.601       6.407       5.268       4.209       3.200       2.184       1.119      3.0742E-03
   6    9.997       8.829       7.645       6.470       5.341       4.279       3.257       2.222       1.139      3.1273E-03
   7    9.997       8.875       7.739       6.604       5.497       4.428       3.377       2.303       1.179      3.2382E-03
   8    9.997       8.929       7.845       6.755       5.670       4.596       3.513       2.396       1.225      3.3661E-03
   9    9.997       8.973       7.931       6.876       5.810       4.730       3.624       2.472       1.264      3.4721E-03
  10    9.998       8.997       7.979       6.941       5.885       4.803       3.684       2.513       1.285      3.5307E-03
1
              HEAD IN LAYER   3 AT END OF TIME STEP  48 IN STRESS PERIOD    5
  ---------------------------------------------------------------------------

            1           2           3           4           5           6           7           8           9          10
 ........................................................................................................................
   1    9.997       8.910       7.812       6.713       5.624       4.547       3.466       2.357       1.202      3.5651E-03
   2    9.997       8.887       7.766       6.648       5.549       4.475       3.408       2.318       1.183      3.5084E-03
   3    9.997       8.851       7.693       6.543       5.427       4.359       3.315       2.256       1.153      3.4188E-03
   4    9.997       8.818       7.626       6.446       5.314       4.251       3.231       2.201       1.126      3.3392E-03
   5    9.997       8.807       7.605       6.414       5.276       4.215       3.204       2.184       1.118      3.3162E-03
   6    9.997       8.829       7.648       6.475       5.347       4.284       3.259       2.222       1.137      3.3727E-03
   7    9.997       8.875       7.739       6.606       5.499       4.430       3.377       2.302       1.177      3.4902E-03
   8    9.997       8.928       7.844       6.754       5.669       4.594       3.511       2.393       1.223      3.6260E-03
   9    9.997       8.971       7.929       6.873       5.806       4.726       3.620       2.468       1.261      3.7387E-03
  10    9.997       8.995       7.976       6.938       5.880       4.798       3.679       2.509       1.282      3.8011E-03
1
              HEAD IN LAYER   4 AT END OF TIME STEP  48 IN STRESS PERIOD    5
  ---------------------------------------------------------------------------

            1           2           3           4           5           6           7           8           9          10
 ........................................................................................................................
   1    9.997       8.909       7.811       6.711       5.622       4.545       3.464       2.355       1.201      3.5886E-03
   2    9.997       8.887       7.766       6.647       5.548       4.474       3.407       2.316       1.182      3.5320E-03
   3    9.997       8.851       7.693       6.543       5.428       4.359       3.315       2.255       1.152      3.4425E-03
   4    9.997       8.818       7.627       6.448       5.317       4.253       3.232       2.201       1.125      3.3632E-03
   5    9.997       8.808       7.606       6.417       5.280       4.219       3.205       2.184       1.118      3.3405E-03
   6    9.997       8.829       7.649       6.477       5.350       4.287       3.260       2.222       1.137      3.3970E-03
   7    9.997       8.875       7.740       6.607       5.500       4.431       3.377       2.301       1.176      3.5145E-03
   8    9.997       8.927       7.843       6.753       5.669       4.593       3.510       2.391       1.222      3.6504E-03
   9    9.997       8.971       7.928       6.872       5.805       4.724       3.618       2.466       1.259      3.7633E-03
  10    9.997       8.994       7.974       6.936       5.878       4.796       3.677       2.507       1.280      3.8258E-03

 HEAD WILL BE SAVED ON UNIT   51 AT END OF TIME STEP   48, STRESS PERIOD    5

 DRAWDOWN WILL BE SAVED ON UNIT   52 AT END OF TIME STEP   48, STRESS PERIOD    5
1
  VOLUMETRIC BUDGET FOR ENTIRE MODEL AT END OF TIME STEP   48, STRESS PERIOD   5
  ------------------------------------------------------------------------------

     CUMULATIVE VOLUMES      L**3       RATES FOR THIS TIME STEP      L**3/T
     ------------------                 ------------------------

           IN:                                      IN:
           ---                                      ---
             STORAGE =      532248.7500               STORAGE =          86.2514
       CONSTANT HEAD =           0.0000         CONSTANT HEAD =           0.0000
               WELLS =           0.0000                 WELLS =           0.0000
     HEAD DEP BOUNDS =      112835.7031       HEAD DEP BOUNDS =         659.3140

            TOTAL IN =      645084.4375              TOTAL IN =         745.5654

          OUT:                                     OUT:
          ----                                     ----
             STORAGE =       12036.1670               STORAGE =         147.3376
       CONSTANT HEAD =           0.0000         CONSTANT HEAD =           0.0000
               WELLS =      100000.0000                 WELLS =           0.0000
     HEAD DEP BOUNDS =      533050.1875       HEAD DEP BOUNDS =         598.2339

           TOTAL OUT =      645086.3750             TOTAL OUT =         745.5715

            IN - OUT =          -1.9375              IN - OUT =      -6.1646E-03

 PERCENT DISCREPANCY =          -0.00     PERCENT DISCREPANCY =          -0.00






         TIME SUMMARY AT END OF TIME STEP   48 IN STRESS PERIOD    5
                    SECONDS     MINUTES      HOURS       DAYS        YEARS
                    -----------------------------------------------------------
   TIME STEP LENGTH  86400.      1440.0      24.000      1.0000     2.73785E-03
 STRESS PERIOD TIME 4.14720E+06  69120.      1152.0      48.000     0.13142    
         TOTAL TIME 3.01536E+07 5.02560E+05  8376.0      349.00     0.95551    
1
 
 SOLVING FOR HEAD 

 OUTPUT CONTROL FOR STRESS PERIOD    5   TIME STEP   49
    SAVE HEAD FOR ALL LAYERS
    SAVE DRAWDOWN FOR ALL LAYERS
    SAVE BUDGET
    PRINT HEAD FOR ALL LAYERS
    PRINT BUDGET
 UBDSV1 SAVING "         STORAGE" ON UNIT  53 AT TIME STEP 49, STRESS PERIOD   5
 UBDSV2 SAVING "   CONSTANT HEAD" ON UNIT  53 AT TIME STEP 49, STRESS PERIOD   5
 UBDSV1 SAVING "FLOW RIGHT FACE " ON UNIT  53 AT TIME STEP 49, STRESS PERIOD   5
 UBDSV1 SAVING "FLOW FRONT FACE " ON UNIT  53 AT TIME STEP 49, STRESS PERIOD   5
 UBDSV1 SAVING "FLOW LOWER FACE " ON UNIT  53 AT TIME STEP 49, STRESS PERIOD   5
1
              HEAD IN LAYER   1 AT END OF TIME STEP  49 IN STRESS PERIOD    5
  ---------------------------------------------------------------------------

            1           2           3           4           5           6           7           8           9          10
 ........................................................................................................................
   1    9.997       8.913       7.815       6.716       5.628       4.551       3.471       2.361       1.206      1.6633E-03
   2    9.997       8.890       7.769       6.650       5.551       4.478       3.412       2.322       1.187      1.6351E-03
   3    9.997       8.852       7.694       6.542       5.426       4.358       3.317       2.259       1.156      1.5903E-03
   4    9.997       8.819       7.625       6.442       5.309       4.247       3.230       2.202       1.128      1.5505E-03
   5    9.997       8.808       7.602       6.408       5.269       4.210       3.201       2.185       1.120      1.5390E-03
   6    9.997       8.830       7.646       6.471       5.342       4.280       3.258       2.224       1.140      1.5668E-03
   7    9.997       8.877       7.740       6.605       5.498       4.430       3.379       2.304       1.180      1.6255E-03
   8    9.997       8.930       7.846       6.756       5.672       4.597       3.515       2.397       1.227      1.6932E-03
   9    9.998       8.974       7.933       6.877       5.811       4.731       3.625       2.473       1.265      1.7494E-03
  10    9.998       8.998       7.980       6.943       5.886       4.804       3.685       2.515       1.286      1.7806E-03
1
              HEAD IN LAYER   2 AT END OF TIME STEP  49 IN STRESS PERIOD    5
  ---------------------------------------------------------------------------

            1           2           3           4           5           6           7           8           9          10
 ........................................................................................................................
   1    9.997       8.911       7.813       6.713       5.624       4.547       3.466       2.357       1.203      3.3054E-03
   2    9.997       8.888       7.767       6.649       5.550       4.476       3.409       2.319       1.184      3.2528E-03
   3    9.997       8.852       7.694       6.544       5.429       4.360       3.316       2.257       1.154      3.1695E-03
   4    9.997       8.819       7.628       6.448       5.316       4.253       3.232       2.202       1.127      3.0957E-03
   5    9.997       8.809       7.607       6.416       5.278       4.217       3.205       2.185       1.119      3.0744E-03
   6    9.997       8.831       7.650       6.478       5.350       4.286       3.261       2.223       1.138      3.1269E-03
   7    9.997       8.876       7.741       6.608       5.501       4.431       3.378       2.303       1.178      3.2361E-03
   8    9.997       8.929       7.845       6.755       5.670       4.595       3.512       2.394       1.224      3.3624E-03
   9    9.997       8.972       7.930       6.873       5.807       4.727       3.620       2.469       1.262      3.4671E-03
  10    9.998       8.996       7.976       6.938       5.881       4.798       3.679       2.510       1.283      3.5252E-03
1
              HEAD IN LAYER   3 AT END OF TIME STEP  49 IN STRESS PERIOD    5
  ---------------------------------------------------------------------------

            1           2           3           4           5           6           7           8           9          10
 ........................................................................................................................
   1    9.997       8.909       7.811       6.711       5.622       4.544       3.463       2.354       1.201      3.5601E-03
   2    9.997       8.887       7.766       6.648       5.549       4.474       3.406       2.316       1.182      3.5044E-03
   3    9.997       8.852       7.695       6.546       5.431       4.361       3.316       2.256       1.152      3.4164E-03
   4    9.997       8.820       7.630       6.453       5.322       4.258       3.234       2.202       1.126      3.3387E-03
   5    9.997       8.810       7.610       6.422       5.286       4.224       3.208       2.186       1.118      3.3166E-03
   6    9.997       8.831       7.652       6.482       5.356       4.291       3.263       2.223       1.137      3.3723E-03
   7    9.997       8.876       7.741       6.609       5.503       4.433       3.378       2.301       1.176      3.4880E-03
   8    9.997       8.928       7.844       6.754       5.669       4.593       3.509       2.391       1.221      3.6221E-03
   9    9.997       8.970       7.927       6.871       5.803       4.723       3.616       2.465       1.259      3.7335E-03
  10    9.997       8.994       7.973       6.934       5.876       4.794       3.675       2.506       1.280      3.7953E-03
1
              HEAD IN LAYER   4 AT END OF TIME STEP  49 IN STRESS PERIOD    5
  ---------------------------------------------------------------------------

            1           2           3           4           5           6           7           8           9          10
 ........................................................................................................................
   1    9.997       8.909       7.810       6.710       5.620       4.543       3.461       2.352       1.199      3.5837E-03
   2    9.997       8.887       7.766       6.647       5.548       4.473       3.405       2.314       1.181      3.5280E-03
   3    9.997       8.851       7.695       6.547       5.432       4.362       3.316       2.255       1.151      3.4403E-03
   4    9.997       8.820       7.632       6.455       5.325       4.260       3.235       2.202       1.125      3.3628E-03
   5    9.997       8.810       7.611       6.425       5.290       4.227       3.210       2.186       1.118      3.3409E-03
   6    9.997       8.831       7.653       6.484       5.358       4.293       3.264       2.223       1.137      3.3966E-03
   7    9.997       8.876       7.742       6.610       5.504       4.433       3.378       2.300       1.175      3.5124E-03
   8    9.997       8.927       7.843       6.753       5.669       4.592       3.508       2.389       1.220      3.6465E-03
   9    9.997       8.970       7.926       6.869       5.802       4.721       3.614       2.463       1.258      3.7581E-03
  10    9.997       8.993       7.972       6.933       5.874       4.792       3.672       2.503       1.278      3.8200E-03

 HEAD WILL BE SAVED ON UNIT   51 AT END OF TIME STEP   49, STRESS PERIOD    5

 DRAWDOWN WILL BE SAVED ON UNIT   52 AT END OF TIME STEP   49, STRESS PERIOD    5
1
  VOLUMETRIC BUDGET FOR ENTIRE MODEL AT END OF TIME STEP   49, STRESS PERIOD   5
  ------------------------------------------------------------------------------

     CUMULATIVE VOLUMES      L**3       RATES FOR THIS TIME STEP      L**3/T
     ------------------                 ------------------------

           IN:                                      IN:
           ---                                      ---
             STORAGE =      532332.0625               STORAGE =          83.3152
       CONSTANT HEAD =           0.0000         CONSTANT HEAD =           0.0000
               WELLS =           0.0000                 WELLS =           0.0000
     HEAD DEP BOUNDS =      113494.7578       HEAD DEP BOUNDS =         659.0526

            TOTAL IN =      645826.8125              TOTAL IN =         742.3678

          OUT:                                     OUT:
          ----                                     ----
             STORAGE =       12180.8184               STORAGE =         144.6509
       CONSTANT HEAD =           0.0000         CONSTANT HEAD =           0.0000
               WELLS =      100000.0000                 WELLS =           0.0000
     HEAD DEP BOUNDS =      533647.9375       HEAD DEP BOUNDS =         597.7269

           TOTAL OUT =      645828.7500             TOTAL OUT =         742.3778

            IN - OUT =          -1.9375              IN - OUT =      -1.0010E-02

 PERCENT DISCREPANCY =          -0.00     PERCENT DISCREPANCY =          -0.00






         TIME SUMMARY AT END OF TIME STEP   49 IN STRESS PERIOD    5
                    SECONDS     MINUTES      HOURS       DAYS        YEARS
                    -----------------------------------------------------------
   TIME STEP LENGTH  86400.      1440.0      24.000      1.0000     2.73785E-03
 STRESS PERIOD TIME 4.23360E+06  70560.      1176.0      49.000     0.13415    
         TOTAL TIME 3.02400E+07 5.04000E+05  8400.0      350.00     0.95825    
1
 
 SOLVING FOR HEAD 

 OUTPUT CONTROL FOR STRESS PERIOD    5   TIME STEP   50
    SAVE HEAD FOR ALL LAYERS
    SAVE DRAWDOWN FOR ALL LAYERS
    SAVE BUDGET
    PRINT HEAD FOR ALL LAYERS
    PRINT BUDGET
 UBDSV1 SAVING "         STORAGE" ON UNIT  53 AT TIME STEP 50, STRESS PERIOD   5
 UBDSV2 SAVING "   CONSTANT HEAD" ON UNIT  53 AT TIME STEP 50, STRESS PERIOD   5
 UBDSV1 SAVING "FLOW RIGHT FACE " ON UNIT  53 AT TIME STEP 50, STRESS PERIOD   5
 UBDSV1 SAVING "FLOW FRONT FACE " ON UNIT  53 AT TIME STEP 50, STRESS PERIOD   5
 UBDSV1 SAVING "FLOW LOWER FACE " ON UNIT  53 AT TIME STEP 50, STRESS PERIOD   5
1
              HEAD IN LAYER   1 AT END OF TIME STEP  50 IN STRESS PERIOD    5
  ---------------------------------------------------------------------------

            1           2           3           4           5           6           7           8           9          10
 ........................................................................................................................
   1    9.997       8.912       7.814       6.715       5.626       4.549       3.468       2.359       1.204      1.6608E-03
   2    9.997       8.890       7.769       6.650       5.551       4.477       3.410       2.320       1.185      1.6331E-03
   3    9.997       8.853       7.696       6.546       5.430       4.361       3.318       2.258       1.155      1.5892E-03
   4    9.997       8.821       7.629       6.449       5.317       4.254       3.233       2.203       1.128      1.5503E-03
   5    9.997       8.810       7.608       6.417       5.279       4.218       3.206       2.187       1.121      1.5391E-03
   6    9.997       8.832       7.651       6.478       5.351       4.287       3.262       2.224       1.140      1.5666E-03
   7    9.997       8.878       7.742       6.609       5.502       4.432       3.379       2.304       1.179      1.6242E-03
   8    9.997       8.930       7.846       6.756       5.672       4.596       3.513       2.395       1.225      1.6910E-03
   9    9.998       8.973       7.931       6.875       5.808       4.728       3.621       2.470       1.263      1.7467E-03
  10    9.998       8.997       7.977       6.939       5.882       4.800       3.681       2.511       1.284      1.7776E-03
1
              HEAD IN LAYER   2 AT END OF TIME STEP  50 IN STRESS PERIOD    5
  ---------------------------------------------------------------------------

            1           2           3           4           5           6           7           8           9          10
 ........................................................................................................................
   1    9.997       8.910       7.811       6.712       5.622       4.545       3.463       2.355       1.202      3.3007E-03
   2    9.997       8.888       7.767       6.649       5.550       4.475       3.407       2.317       1.183      3.2490E-03
   3    9.997       8.853       7.697       6.548       5.432       4.363       3.317       2.257       1.153      3.1674E-03
   4    9.997       8.821       7.632       6.455       5.324       4.259       3.235       2.203       1.127      3.0952E-03
   5    9.997       8.811       7.612       6.425       5.288       4.226       3.210       2.187       1.120      3.0747E-03
   6    9.997       8.832       7.654       6.484       5.358       4.293       3.264       2.224       1.138      3.1265E-03
   7    9.997       8.877       7.743       6.611       5.505       4.434       3.379       2.302       1.177      3.2341E-03
   8    9.997       8.929       7.845       6.755       5.670       4.594       3.510       2.392       1.223      3.3587E-03
   9    9.997       8.971       7.928       6.871       5.804       4.724       3.617       2.466       1.260      3.4623E-03
  10    9.997       8.994       7.974       6.935       5.877       4.794       3.675       2.506       1.281      3.5198E-03
1
              HEAD IN LAYER   3 AT END OF TIME STEP  50 IN STRESS PERIOD    5
  ---------------------------------------------------------------------------

            1           2           3           4           5           6           7           8           9          10
 ........................................................................................................................
   1    9.997       8.909       7.809       6.709       5.620       4.542       3.460       2.351       1.199      3.5552E-03
   2    9.997       8.887       7.766       6.648       5.549       4.474       3.405       2.314       1.180      3.5005E-03
   3    9.997       8.852       7.697       6.549       5.435       4.364       3.317       2.255       1.151      3.4143E-03
   4    9.997       8.822       7.635       6.460       5.330       4.264       3.237       2.203       1.126      3.3383E-03
   5    9.997       8.812       7.615       6.431       5.296       4.232       3.213       2.187       1.119      3.3170E-03
   6    9.997       8.833       7.656       6.489       5.363       4.297       3.266       2.224       1.137      3.3719E-03
   7    9.997       8.877       7.744       6.613       5.507       4.436       3.379       2.301       1.176      3.4860E-03
   8    9.997       8.928       7.844       6.754       5.669       4.592       3.507       2.389       1.220      3.6182E-03
   9    9.997       8.970       7.926       6.868       5.801       4.720       3.613       2.462       1.257      3.7284E-03
  10    9.997       8.993       7.971       6.931       5.872       4.790       3.671       2.502       1.278      3.7896E-03
1
              HEAD IN LAYER   4 AT END OF TIME STEP  50 IN STRESS PERIOD    5
  ---------------------------------------------------------------------------

            1           2           3           4           5           6           7           8           9          10
 ........................................................................................................................
   1    9.997       8.908       7.808       6.708       5.618       4.540       3.458       2.349       1.198      3.5788E-03
   2    9.997       8.886       7.766       6.648       5.549       4.473       3.404       2.313       1.179      3.5241E-03
   3    9.997       8.852       7.697       6.550       5.436       4.365       3.317       2.254       1.151      3.4381E-03
   4    9.997       8.822       7.636       6.462       5.333       4.266       3.238       2.203       1.125      3.3624E-03
   5    9.997       8.812       7.617       6.433       5.299       4.235       3.214       2.187       1.118      3.3414E-03
   6    9.997       8.833       7.657       6.491       5.366       4.300       3.267       2.224       1.137      3.3963E-03
   7    9.997       8.877       7.744       6.614       5.508       4.436       3.379       2.300       1.175      3.5104E-03
   8    9.997       8.927       7.843       6.753       5.669       4.592       3.506       2.387       1.219      3.6427E-03
   9    9.997       8.969       7.925       6.867       5.799       4.718       3.611       2.460       1.256      3.7530E-03
  10    9.997       8.992       7.970       6.929       5.870       4.787       3.668       2.500       1.276      3.8143E-03

 HEAD WILL BE SAVED ON UNIT   51 AT END OF TIME STEP   50, STRESS PERIOD    5

 DRAWDOWN WILL BE SAVED ON UNIT   52 AT END OF TIME STEP   50, STRESS PERIOD    5
1
  VOLUMETRIC BUDGET FOR ENTIRE MODEL AT END OF TIME STEP   50, STRESS PERIOD   5
  ------------------------------------------------------------------------------

     CUMULATIVE VOLUMES      L**3       RATES FOR THIS TIME STEP      L**3/T
     ------------------                 ------------------------

           IN:                                      IN:
           ---                                      ---
             STORAGE =      532412.5625               STORAGE =          80.4998
       CONSTANT HEAD =           0.0000         CONSTANT HEAD =           0.0000
               WELLS =           0.0000                 WELLS =           0.0000
     HEAD DEP BOUNDS =      114153.5469       HEAD DEP BOUNDS =         658.7886

            TOTAL IN =      646566.1250              TOTAL IN =         739.2883

          OUT:                                     OUT:
          ----                                     ----
             STORAGE =       12322.8789               STORAGE =         142.0602
       CONSTANT HEAD =           0.0000         CONSTANT HEAD =           0.0000
               WELLS =      100000.0000                 WELLS =           0.0000
     HEAD DEP BOUNDS =      534245.1875       HEAD DEP BOUNDS =         597.2388

           TOTAL OUT =      646568.0625             TOTAL OUT =         739.2990

            IN - OUT =          -1.9375              IN - OUT =      -1.0620E-02

 PERCENT DISCREPANCY =          -0.00     PERCENT DISCREPANCY =          -0.00






         TIME SUMMARY AT END OF TIME STEP   50 IN STRESS PERIOD    5
                    SECONDS     MINUTES      HOURS       DAYS        YEARS
                    -----------------------------------------------------------
   TIME STEP LENGTH  86400.      1440.0      24.000      1.0000     2.73785E-03
 STRESS PERIOD TIME 4.32000E+06  72000.      1200.0      50.000     0.13689    
         TOTAL TIME 3.03264E+07 5.05440E+05  8424.0      351.00     0.96099    
1
 
 SOLVING FOR HEAD 

 OUTPUT CONTROL FOR STRESS PERIOD    5   TIME STEP   51
    SAVE HEAD FOR ALL LAYERS
    SAVE DRAWDOWN FOR ALL LAYERS
    SAVE BUDGET
    PRINT HEAD FOR ALL LAYERS
    PRINT BUDGET
 UBDSV1 SAVING "         STORAGE" ON UNIT  53 AT TIME STEP 51, STRESS PERIOD   5
 UBDSV2 SAVING "   CONSTANT HEAD" ON UNIT  53 AT TIME STEP 51, STRESS PERIOD   5
 UBDSV1 SAVING "FLOW RIGHT FACE " ON UNIT  53 AT TIME STEP 51, STRESS PERIOD   5
 UBDSV1 SAVING "FLOW FRONT FACE " ON UNIT  53 AT TIME STEP 51, STRESS PERIOD   5
 UBDSV1 SAVING "FLOW LOWER FACE " ON UNIT  53 AT TIME STEP 51, STRESS PERIOD   5
1
              HEAD IN LAYER   1 AT END OF TIME STEP  51 IN STRESS PERIOD    5
  ---------------------------------------------------------------------------

            1           2           3           4           5           6           7           8           9          10
 ........................................................................................................................
   1    9.997       8.912       7.813       6.713       5.624       4.546       3.465       2.356       1.203      1.6583E-03
   2    9.997       8.889       7.769       6.650       5.551       4.476       3.408       2.318       1.184      1.6310E-03
   3    9.997       8.854       7.698       6.549       5.434       4.364       3.318       2.258       1.154      1.5879E-03
   4    9.997       8.823       7.634       6.456       5.325       4.260       3.236       2.204       1.128      1.5501E-03
   5    9.997       8.813       7.613       6.426       5.289       4.227       3.211       2.188       1.121      1.5393E-03
   6    9.997       8.834       7.655       6.485       5.359       4.294       3.265       2.225       1.139      1.5665E-03
   7    9.997       8.878       7.744       6.612       5.506       4.435       3.380       2.303       1.179      1.6232E-03
   8    9.997       8.930       7.846       6.756       5.671       4.595       3.511       2.393       1.224      1.6891E-03
   9    9.998       8.972       7.929       6.873       5.805       4.725       3.618       2.467       1.261      1.7443E-03
  10    9.998       8.996       7.975       6.936       5.878       4.795       3.677       2.508       1.282      1.7748E-03
1
              HEAD IN LAYER   2 AT END OF TIME STEP  51 IN STRESS PERIOD    5
  ---------------------------------------------------------------------------

            1           2           3           4           5           6           7           8           9          10
 ........................................................................................................................
   1    9.997       8.910       7.810       6.710       5.620       4.542       3.461       2.352       1.200      3.2962E-03
   2    9.997       8.888       7.767       6.649       5.550       4.474       3.406       2.315       1.182      3.2454E-03
   3    9.997       8.854       7.699       6.551       5.436       4.365       3.318       2.256       1.152      3.1654E-03
   4    9.997       8.823       7.637       6.462       5.332       4.266       3.239       2.204       1.127      3.0949E-03
   5    9.997       8.814       7.617       6.433       5.298       4.234       3.214       2.188       1.120      3.0752E-03
   6    9.997       8.834       7.658       6.491       5.366       4.299       3.268       2.225       1.138      3.1262E-03
   7    9.997       8.878       7.745       6.614       5.508       4.437       3.380       2.302       1.177      3.2322E-03
   8    9.997       8.928       7.845       6.755       5.670       4.593       3.508       2.390       1.221      3.3551E-03
   9    9.997       8.970       7.926       6.869       5.801       4.720       3.613       2.463       1.258      3.4576E-03
  10    9.997       8.993       7.971       6.931       5.873       4.790       3.671       2.503       1.279      3.5145E-03
1
              HEAD IN LAYER   3 AT END OF TIME STEP  51 IN STRESS PERIOD    5
  ---------------------------------------------------------------------------

            1           2           3           4           5           6           7           8           9          10
 ........................................................................................................................
   1    9.997       8.908       7.808       6.708       5.618       4.539       3.457       2.349       1.197      3.5504E-03
   2    9.997       8.887       7.766       6.648       5.549       4.473       3.403       2.312       1.179      3.4967E-03
   3    9.997       8.853       7.699       6.553       5.439       4.367       3.318       2.255       1.151      3.4122E-03
   4    9.997       8.823       7.639       6.466       5.338       4.270       3.241       2.204       1.126      3.3380E-03
   5    9.997       8.814       7.620       6.439       5.305       4.240       3.217       2.189       1.119      3.3175E-03
   6    9.997       8.835       7.661       6.496       5.371       4.304       3.270       2.225       1.137      3.3717E-03
   7    9.997       8.878       7.746       6.616       5.511       4.438       3.380       2.300       1.175      3.4840E-03
   8    9.997       8.927       7.844       6.754       5.669       4.592       3.506       2.387       1.219      3.6145E-03
   9    9.997       8.969       7.924       6.866       5.798       4.717       3.610       2.459       1.256      3.7234E-03
  10    9.997       8.991       7.969       6.928       5.869       4.785       3.667       2.499       1.276      3.7839E-03
1
              HEAD IN LAYER   4 AT END OF TIME STEP  51 IN STRESS PERIOD    5
  ---------------------------------------------------------------------------

            1           2           3           4           5           6           7           8           9          10
 ........................................................................................................................
   1    9.997       8.907       7.807       6.707       5.617       4.538       3.455       2.347       1.196      3.5740E-03
   2    9.997       8.886       7.766       6.648       5.549       4.472       3.402       2.311       1.178      3.5204E-03
   3    9.997       8.853       7.699       6.554       5.440       4.367       3.318       2.254       1.150      3.4361E-03
   4    9.997       8.824       7.640       6.468       5.340       4.272       3.242       2.203       1.125      3.3622E-03
   5    9.997       8.815       7.622       6.441       5.309       4.242       3.219       2.189       1.118      3.3419E-03
   6    9.997       8.835       7.662       6.498       5.374       4.306       3.271       2.225       1.136      3.3962E-03
   7    9.997       8.878       7.746       6.617       5.512       4.439       3.380       2.299       1.174      3.5084E-03
   8    9.997       8.927       7.843       6.753       5.669       4.591       3.505       2.386       1.218      3.6390E-03
   9    9.997       8.968       7.923       6.865       5.797       4.715       3.608       2.457       1.254      3.7480E-03
  10    9.997       8.991       7.967       6.926       5.867       4.783       3.664       2.497       1.275      3.8087E-03

 HEAD WILL BE SAVED ON UNIT   51 AT END OF TIME STEP   51, STRESS PERIOD    5

 DRAWDOWN WILL BE SAVED ON UNIT   52 AT END OF TIME STEP   51, STRESS PERIOD    5
1
  VOLUMETRIC BUDGET FOR ENTIRE MODEL AT END OF TIME STEP   51, STRESS PERIOD   5
  ------------------------------------------------------------------------------

     CUMULATIVE VOLUMES      L**3       RATES FOR THIS TIME STEP      L**3/T
     ------------------                 ------------------------

           IN:                                      IN:
           ---                                      ---
             STORAGE =      532490.3750               STORAGE =          77.7934
       CONSTANT HEAD =           0.0000         CONSTANT HEAD =           0.0000
               WELLS =           0.0000                 WELLS =           0.0000
     HEAD DEP BOUNDS =      114812.0547       HEAD DEP BOUNDS =         658.5092

            TOTAL IN =      647302.4375              TOTAL IN =         736.3026

          OUT:                                     OUT:
          ----                                     ----
             STORAGE =       12462.4268               STORAGE =         139.5479
       CONSTANT HEAD =           0.0000         CONSTANT HEAD =           0.0000
               WELLS =      100000.0000                 WELLS =           0.0000
     HEAD DEP BOUNDS =      534841.9375       HEAD DEP BOUNDS =         596.7697

           TOTAL OUT =      647304.3750             TOTAL OUT =         736.3176

            IN - OUT =          -1.9375              IN - OUT =      -1.5076E-02

 PERCENT DISCREPANCY =          -0.00     PERCENT DISCREPANCY =          -0.00






         TIME SUMMARY AT END OF TIME STEP   51 IN STRESS PERIOD    5
                    SECONDS     MINUTES      HOURS       DAYS        YEARS
                    -----------------------------------------------------------
   TIME STEP LENGTH  86400.      1440.0      24.000      1.0000     2.73785E-03
 STRESS PERIOD TIME 4.40640E+06  73440.      1224.0      51.000     0.13963    
         TOTAL TIME 3.04128E+07 5.06880E+05  8448.0      352.00     0.96372    
1
 
 SOLVING FOR HEAD 

 OUTPUT CONTROL FOR STRESS PERIOD    5   TIME STEP   52
    SAVE HEAD FOR ALL LAYERS
    SAVE DRAWDOWN FOR ALL LAYERS
    SAVE BUDGET
    PRINT HEAD FOR ALL LAYERS
    PRINT BUDGET
 UBDSV1 SAVING "         STORAGE" ON UNIT  53 AT TIME STEP 52, STRESS PERIOD   5
 UBDSV2 SAVING "   CONSTANT HEAD" ON UNIT  53 AT TIME STEP 52, STRESS PERIOD   5
 UBDSV1 SAVING "FLOW RIGHT FACE " ON UNIT  53 AT TIME STEP 52, STRESS PERIOD   5
 UBDSV1 SAVING "FLOW FRONT FACE " ON UNIT  53 AT TIME STEP 52, STRESS PERIOD   5
 UBDSV1 SAVING "FLOW LOWER FACE " ON UNIT  53 AT TIME STEP 52, STRESS PERIOD   5
1
              HEAD IN LAYER   1 AT END OF TIME STEP  52 IN STRESS PERIOD    5
  ---------------------------------------------------------------------------

            1           2           3           4           5           6           7           8           9          10
 ........................................................................................................................
   1    9.997       8.911       7.812       6.712       5.622       4.544       3.462       2.353       1.201      1.6559E-03
   2    9.997       8.889       7.769       6.651       5.551       4.476       3.407       2.316       1.183      1.6291E-03
   3    9.997       8.855       7.700       6.552       5.438       4.367       3.319       2.257       1.154      1.5869E-03
   4    9.997       8.824       7.638       6.463       5.333       4.267       3.240       2.205       1.128      1.5498E-03
   5    9.997       8.815       7.618       6.434       5.299       4.235       3.215       2.190       1.121      1.5395E-03
   6    9.997       8.836       7.660       6.492       5.367       4.300       3.269       2.226       1.139      1.5664E-03
   7    9.997       8.879       7.746       6.616       5.510       4.438       3.381       2.303       1.178      1.6222E-03
   8    9.997       8.930       7.846       6.756       5.671       4.595       3.510       2.391       1.223      1.6872E-03
   9    9.998       8.971       7.928       6.870       5.803       4.722       3.615       2.464       1.260      1.7417E-03
  10    9.998       8.994       7.973       6.933       5.874       4.791       3.672       2.504       1.280      1.7719E-03
1
              HEAD IN LAYER   2 AT END OF TIME STEP  52 IN STRESS PERIOD    5
  ---------------------------------------------------------------------------

            1           2           3           4           5           6           7           8           9          10
 ........................................................................................................................
   1    9.997       8.909       7.809       6.709       5.619       4.540       3.458       2.349       1.198      3.2918E-03
   2    9.997       8.888       7.767       6.650       5.550       4.474       3.404       2.313       1.180      3.2419E-03
   3    9.997       8.855       7.701       6.555       5.440       4.368       3.319       2.256       1.152      3.1635E-03
   4    9.997       8.825       7.641       6.468       5.340       4.272       3.242       2.205       1.127      3.0946E-03
   5    9.997       8.816       7.623       6.441       5.308       4.242       3.219       2.190       1.120      3.0757E-03
   6    9.997       8.836       7.663       6.498       5.373       4.305       3.271       2.226       1.138      3.1260E-03
   7    9.997       8.879       7.747       6.618       5.512       4.440       3.381       2.301       1.176      3.2304E-03
   8    9.997       8.928       7.845       6.755       5.670       4.593       3.507       2.388       1.220      3.3516E-03
   9    9.997       8.969       7.925       6.867       5.799       4.717       3.610       2.460       1.257      3.4529E-03
  10    9.997       8.992       7.969       6.928       5.869       4.786       3.667       2.500       1.277      3.5093E-03
1
              HEAD IN LAYER   3 AT END OF TIME STEP  52 IN STRESS PERIOD    5
  ---------------------------------------------------------------------------

            1           2           3           4           5           6           7           8           9          10
 ........................................................................................................................
   1    9.997       8.908       7.807       6.707       5.616       4.537       3.454       2.346       1.196      3.5458E-03
   2    9.997       8.887       7.766       6.649       5.549       4.473       3.402       2.310       1.178      3.4930E-03
   3    9.997       8.854       7.701       6.556       5.442       4.369       3.319       2.254       1.150      3.4103E-03
   4    9.997       8.825       7.643       6.473       5.345       4.276       3.244       2.204       1.126      3.3378E-03
   5    9.997       8.817       7.625       6.447       5.314       4.247       3.222       2.190       1.119      3.3181E-03
   6    9.997       8.837       7.665       6.502       5.379       4.310       3.273       2.226       1.137      3.3716E-03
   7    9.997       8.879       7.748       6.620       5.514       4.441       3.381       2.300       1.174      3.4822E-03
   8    9.997       8.927       7.844       6.754       5.669       4.591       3.504       2.385       1.218      3.6108E-03
   9    9.997       8.968       7.923       6.864       5.796       4.714       3.606       2.456       1.254      3.7184E-03
  10    9.997       8.990       7.966       6.925       5.865       4.781       3.663       2.496       1.274      3.7784E-03
1
              HEAD IN LAYER   4 AT END OF TIME STEP  52 IN STRESS PERIOD    5
  ---------------------------------------------------------------------------

            1           2           3           4           5           6           7           8           9          10
 ........................................................................................................................
   1    9.997       8.907       7.806       6.706       5.615       4.535       3.453       2.344       1.194      3.5694E-03
   2    9.997       8.886       7.766       6.648       5.549       4.472       3.401       2.309       1.177      3.5168E-03
   3    9.997       8.854       7.702       6.557       5.443       4.370       3.318       2.253       1.149      3.4342E-03
   4    9.997       8.825       7.644       6.475       5.348       4.278       3.245       2.204       1.125      3.3620E-03
   5    9.997       8.817       7.627       6.449       5.318       4.250       3.223       2.190       1.119      3.3426E-03
   6    9.997       8.837       7.666       6.504       5.381       4.312       3.274       2.226       1.136      3.3961E-03
   7    9.997       8.878       7.748       6.620       5.515       4.442       3.381       2.299       1.173      3.5066E-03
   8    9.997       8.927       7.843       6.754       5.669       4.590       3.503       2.384       1.217      3.6353E-03
   9    9.997       8.967       7.922       6.863       5.794       4.712       3.604       2.454       1.253      3.7431E-03
  10    9.997       8.989       7.965       6.923       5.863       4.779       3.660       2.494       1.273      3.8031E-03

 HEAD WILL BE SAVED ON UNIT   51 AT END OF TIME STEP   52, STRESS PERIOD    5

 DRAWDOWN WILL BE SAVED ON UNIT   52 AT END OF TIME STEP   52, STRESS PERIOD    5
1
  VOLUMETRIC BUDGET FOR ENTIRE MODEL AT END OF TIME STEP   52, STRESS PERIOD   5
  ------------------------------------------------------------------------------

     CUMULATIVE VOLUMES      L**3       RATES FOR THIS TIME STEP      L**3/T
     ------------------                 ------------------------

           IN:                                      IN:
           ---                                      ---
             STORAGE =      532565.5625               STORAGE =          75.1662
       CONSTANT HEAD =           0.0000         CONSTANT HEAD =           0.0000
               WELLS =           0.0000                 WELLS =           0.0000
     HEAD DEP BOUNDS =      115470.2969       HEAD DEP BOUNDS =         658.2426

            TOTAL IN =      648035.8750              TOTAL IN =         733.4088

          OUT:                                     OUT:
          ----                                     ----
             STORAGE =       12599.5107               STORAGE =         137.0842
       CONSTANT HEAD =           0.0000         CONSTANT HEAD =           0.0000
               WELLS =      100000.0000                 WELLS =           0.0000
     HEAD DEP BOUNDS =      535438.2500       HEAD DEP BOUNDS =         596.3195

           TOTAL OUT =      648037.7500             TOTAL OUT =         733.4037

            IN - OUT =          -1.8750              IN - OUT =       5.1270E-03

 PERCENT DISCREPANCY =          -0.00     PERCENT DISCREPANCY =           0.00






         TIME SUMMARY AT END OF TIME STEP   52 IN STRESS PERIOD    5
                    SECONDS     MINUTES      HOURS       DAYS        YEARS
                    -----------------------------------------------------------
   TIME STEP LENGTH  86400.      1440.0      24.000      1.0000     2.73785E-03
 STRESS PERIOD TIME 4.49280E+06  74880.      1248.0      52.000     0.14237    
         TOTAL TIME 3.04992E+07 5.08320E+05  8472.0      353.00     0.96646    
1
 
 SOLVING FOR HEAD 

 OUTPUT CONTROL FOR STRESS PERIOD    5   TIME STEP   53
    SAVE HEAD FOR ALL LAYERS
    SAVE DRAWDOWN FOR ALL LAYERS
    SAVE BUDGET
    PRINT HEAD FOR ALL LAYERS
    PRINT BUDGET
 UBDSV1 SAVING "         STORAGE" ON UNIT  53 AT TIME STEP 53, STRESS PERIOD   5
 UBDSV2 SAVING "   CONSTANT HEAD" ON UNIT  53 AT TIME STEP 53, STRESS PERIOD   5
 UBDSV1 SAVING "FLOW RIGHT FACE " ON UNIT  53 AT TIME STEP 53, STRESS PERIOD   5
 UBDSV1 SAVING "FLOW FRONT FACE " ON UNIT  53 AT TIME STEP 53, STRESS PERIOD   5
 UBDSV1 SAVING "FLOW LOWER FACE " ON UNIT  53 AT TIME STEP 53, STRESS PERIOD   5
1
              HEAD IN LAYER   1 AT END OF TIME STEP  53 IN STRESS PERIOD    5
  ---------------------------------------------------------------------------

            1           2           3           4           5           6           7           8           9          10
 ........................................................................................................................
   1    9.997       8.910       7.811       6.710       5.620       4.541       3.459       2.350       1.200      1.6535E-03
   2    9.997       8.889       7.769       6.651       5.551       4.475       3.405       2.314       1.181      1.6272E-03
   3    9.997       8.856       7.702       6.556       5.441       4.369       3.320       2.257       1.153      1.5859E-03
   4    9.997       8.826       7.642       6.469       5.341       4.273       3.243       2.206       1.128      1.5497E-03
   5    9.997       8.817       7.624       6.442       5.309       4.243       3.220       2.191       1.121      1.5397E-03
   6    9.997       8.838       7.664       6.499       5.374       4.306       3.272       2.227       1.139      1.5663E-03
   7    9.997       8.880       7.748       6.619       5.513       4.441       3.382       2.302       1.177      1.6213E-03
   8    9.997       8.930       7.846       6.756       5.671       4.594       3.508       2.389       1.221      1.6855E-03
   9    9.998       8.971       7.926       6.868       5.800       4.719       3.611       2.461       1.258      1.7392E-03
  10    9.998       8.993       7.970       6.930       5.870       4.787       3.668       2.501       1.279      1.7691E-03
1
              HEAD IN LAYER   2 AT END OF TIME STEP  53 IN STRESS PERIOD    5
  ---------------------------------------------------------------------------

            1           2           3           4           5           6           7           8           9          10
 ........................................................................................................................
   1    9.997       8.908       7.808       6.707       5.617       4.538       3.455       2.347       1.197      3.2875E-03
   2    9.997       8.888       7.767       6.650       5.550       4.473       3.403       2.311       1.179      3.2385E-03
   3    9.997       8.855       7.703       6.558       5.444       4.371       3.320       2.255       1.151      3.1617E-03
   4    9.997       8.827       7.645       6.475       5.347       4.278       3.245       2.206       1.127      3.0944E-03
   5    9.997       8.818       7.628       6.449       5.317       4.249       3.223       2.192       1.120      3.0762E-03
   6    9.997       8.838       7.667       6.504       5.381       4.311       3.274       2.227       1.138      3.1259E-03
   7    9.997       8.880       7.749       6.621       5.516       4.442       3.382       2.301       1.175      3.2287E-03
   8    9.997       8.928       7.844       6.755       5.670       4.592       3.505       2.386       1.219      3.3483E-03
   9    9.997       8.968       7.923       6.865       5.796       4.714       3.607       2.457       1.255      3.4483E-03
  10    9.997       8.991       7.967       6.925       5.865       4.782       3.663       2.496       1.275      3.5041E-03
1
              HEAD IN LAYER   3 AT END OF TIME STEP  53 IN STRESS PERIOD    5
  ---------------------------------------------------------------------------

            1           2           3           4           5           6           7           8           9          10
 ........................................................................................................................
   1    9.997       8.907       7.806       6.705       5.615       4.535       3.452       2.344       1.194      3.5413E-03
   2    9.997       8.887       7.766       6.649       5.550       4.472       3.401       2.309       1.177      3.4895E-03
   3    9.997       8.855       7.703       6.560       5.446       4.372       3.319       2.254       1.149      3.4084E-03
   4    9.997       8.827       7.647       6.479       5.352       4.282       3.247       2.205       1.126      3.3377E-03
   5    9.997       8.819       7.630       6.454       5.323       4.255       3.226       2.192       1.119      3.3188E-03
   6    9.997       8.838       7.669       6.509       5.386       4.316       3.276       2.227       1.137      3.3716E-03
   7    9.997       8.880       7.750       6.623       5.518       4.444       3.382       2.299       1.174      3.4805E-03
   8    9.997       8.927       7.843       6.754       5.669       4.590       3.503       2.384       1.216      3.6073E-03
   9    9.997       8.967       7.921       6.862       5.793       4.711       3.603       2.454       1.252      3.7136E-03
  10    9.997       8.989       7.964       6.922       5.861       4.777       3.659       2.492       1.272      3.7730E-03
1
              HEAD IN LAYER   4 AT END OF TIME STEP  53 IN STRESS PERIOD    5
  ---------------------------------------------------------------------------

            1           2           3           4           5           6           7           8           9          10
 ........................................................................................................................
   1    9.997       8.906       7.805       6.704       5.613       4.533       3.450       2.342       1.193      3.5649E-03
   2    9.997       8.886       7.766       6.649       5.549       4.471       3.399       2.307       1.176      3.5133E-03
   3    9.997       8.855       7.704       6.560       5.447       4.373       3.319       2.253       1.149      3.4324E-03
   4    9.997       8.827       7.648       6.481       5.355       4.284       3.248       2.205       1.125      3.3620E-03
   5    9.997       8.819       7.632       6.457       5.327       4.257       3.227       2.192       1.119      3.3433E-03
   6    9.997       8.839       7.670       6.511       5.389       4.318       3.277       2.227       1.136      3.3961E-03
   7    9.997       8.879       7.750       6.624       5.519       4.444       3.381       2.299       1.173      3.5049E-03
   8    9.997       8.927       7.843       6.754       5.669       4.590       3.502       2.382       1.215      3.6318E-03
   9    9.997       8.966       7.920       6.861       5.792       4.709       3.601       2.452       1.251      3.7383E-03
  10    9.997       8.988       7.963       6.920       5.859       4.775       3.656       2.490       1.271      3.7977E-03

 HEAD WILL BE SAVED ON UNIT   51 AT END OF TIME STEP   53, STRESS PERIOD    5

 DRAWDOWN WILL BE SAVED ON UNIT   52 AT END OF TIME STEP   53, STRESS PERIOD    5
1
  VOLUMETRIC BUDGET FOR ENTIRE MODEL AT END OF TIME STEP   53, STRESS PERIOD   5
  ------------------------------------------------------------------------------

     CUMULATIVE VOLUMES      L**3       RATES FOR THIS TIME STEP      L**3/T
     ------------------                 ------------------------

           IN:                                      IN:
           ---                                      ---
             STORAGE =      532638.1875               STORAGE =          72.6486
       CONSTANT HEAD =           0.0000         CONSTANT HEAD =           0.0000
               WELLS =           0.0000                 WELLS =           0.0000
     HEAD DEP BOUNDS =      116128.2422       HEAD DEP BOUNDS =         657.9418

            TOTAL IN =      648766.4375              TOTAL IN =         730.5904

          OUT:                                     OUT:
          ----                                     ----
             STORAGE =       12734.2197               STORAGE =         134.7087
       CONSTANT HEAD =           0.0000         CONSTANT HEAD =           0.0000
               WELLS =      100000.0000                 WELLS =           0.0000
     HEAD DEP BOUNDS =      536034.1250       HEAD DEP BOUNDS =         595.8873

           TOTAL OUT =      648768.3750             TOTAL OUT =         730.5959

            IN - OUT =          -1.9375              IN - OUT =      -5.5542E-03

 PERCENT DISCREPANCY =          -0.00     PERCENT DISCREPANCY =          -0.00






         TIME SUMMARY AT END OF TIME STEP   53 IN STRESS PERIOD    5
                    SECONDS     MINUTES      HOURS       DAYS        YEARS
                    -----------------------------------------------------------
   TIME STEP LENGTH  86400.      1440.0      24.000      1.0000     2.73785E-03
 STRESS PERIOD TIME 4.57920E+06  76320.      1272.0      53.000     0.14511    
         TOTAL TIME 3.05856E+07 5.09760E+05  8496.0      354.00     0.96920    
1
 
 SOLVING FOR HEAD 

 OUTPUT CONTROL FOR STRESS PERIOD    5   TIME STEP   54
    SAVE HEAD FOR ALL LAYERS
    SAVE DRAWDOWN FOR ALL LAYERS
    SAVE BUDGET
    PRINT HEAD FOR ALL LAYERS
    PRINT BUDGET
 UBDSV1 SAVING "         STORAGE" ON UNIT  53 AT TIME STEP 54, STRESS PERIOD   5
 UBDSV2 SAVING "   CONSTANT HEAD" ON UNIT  53 AT TIME STEP 54, STRESS PERIOD   5
 UBDSV1 SAVING "FLOW RIGHT FACE " ON UNIT  53 AT TIME STEP 54, STRESS PERIOD   5
 UBDSV1 SAVING "FLOW FRONT FACE " ON UNIT  53 AT TIME STEP 54, STRESS PERIOD   5
 UBDSV1 SAVING "FLOW LOWER FACE " ON UNIT  53 AT TIME STEP 54, STRESS PERIOD   5
1
              HEAD IN LAYER   1 AT END OF TIME STEP  54 IN STRESS PERIOD    5
  ---------------------------------------------------------------------------

            1           2           3           4           5           6           7           8           9          10
 ........................................................................................................................
   1    9.997       8.910       7.809       6.709       5.618       4.539       3.456       2.348       1.198      1.6513E-03
   2    9.997       8.889       7.769       6.651       5.552       4.475       3.404       2.312       1.180      1.6254E-03
   3    9.997       8.857       7.704       6.559       5.445       4.372       3.321       2.256       1.152      1.5850E-03
   4    9.997       8.828       7.646       6.476       5.348       4.279       3.246       2.207       1.128      1.5496E-03
   5    9.997       8.820       7.629       6.450       5.318       4.250       3.224       2.193       1.121      1.5400E-03
   6    9.997       8.839       7.668       6.505       5.382       4.313       3.275       2.228       1.139      1.5663E-03
   7    9.997       8.881       7.750       6.622       5.517       4.444       3.383       2.302       1.177      1.6204E-03
   8    9.997       8.929       7.846       6.756       5.671       4.593       3.506       2.387       1.220      1.6837E-03
   9    9.998       8.970       7.924       6.866       5.797       4.716       3.608       2.458       1.256      1.7368E-03
  10    9.998       8.992       7.968       6.926       5.867       4.783       3.664       2.498       1.277      1.7665E-03
1
              HEAD IN LAYER   2 AT END OF TIME STEP  54 IN STRESS PERIOD    5
  ---------------------------------------------------------------------------

            1           2           3           4           5           6           7           8           9          10
 ........................................................................................................................
   1    9.997       8.908       7.807       6.706       5.615       4.535       3.452       2.344       1.195      3.2833E-03
   2    9.997       8.888       7.768       6.650       5.551       4.473       3.401       2.310       1.178      3.2352E-03
   3    9.997       8.856       7.705       6.561       5.448       4.374       3.321       2.255       1.151      3.1600E-03
   4    9.997       8.829       7.649       6.481       5.355       4.284       3.249       2.207       1.127      3.0944E-03
   5    9.997       8.821       7.632       6.457       5.326       4.257       3.227       2.193       1.120      3.0769E-03
   6    9.997       8.840       7.671       6.511       5.388       4.317       3.278       2.228       1.138      3.1259E-03
   7    9.997       8.881       7.751       6.624       5.520       4.445       3.383       2.300       1.175      3.2271E-03
   8    9.997       8.928       7.844       6.755       5.670       4.591       3.504       2.384       1.218      3.3450E-03
   9    9.997       8.968       7.922       6.863       5.794       4.712       3.604       2.454       1.253      3.4439E-03
  10    9.997       8.990       7.964       6.922       5.861       4.778       3.659       2.493       1.273      3.4991E-03
1
              HEAD IN LAYER   3 AT END OF TIME STEP  54 IN STRESS PERIOD    5
  ---------------------------------------------------------------------------

            1           2           3           4           5           6           7           8           9          10
 ........................................................................................................................
   1    9.997       8.906       7.805       6.704       5.613       4.533       3.449       2.341       1.193      3.5369E-03
   2    9.997       8.887       7.767       6.650       5.550       4.472       3.399       2.307       1.176      3.4861E-03
   3    9.997       8.856       7.705       6.563       5.450       4.375       3.320       2.253       1.149      3.4067E-03
   4    9.997       8.829       7.651       6.485       5.359       4.288       3.250       2.206       1.126      3.3377E-03
   5    9.997       8.821       7.635       6.462       5.332       4.262       3.230       2.193       1.119      3.3196E-03
   6    9.997       8.840       7.673       6.515       5.393       4.321       3.279       2.228       1.137      3.3717E-03
   7    9.997       8.880       7.752       6.626       5.522       4.446       3.383       2.299       1.173      3.4788E-03
   8    9.997       8.927       7.844       6.754       5.669       4.590       3.502       2.382       1.215      3.6039E-03
   9    9.997       8.966       7.920       6.860       5.791       4.708       3.600       2.451       1.251      3.7089E-03
  10    9.997       8.988       7.962       6.919       5.858       4.773       3.655       2.489       1.271      3.7676E-03
1
              HEAD IN LAYER   4 AT END OF TIME STEP  54 IN STRESS PERIOD    5
  ---------------------------------------------------------------------------

            1           2           3           4           5           6           7           8           9          10
 ........................................................................................................................
   1    9.997       8.906       7.805       6.703       5.612       4.531       3.448       2.340       1.192      3.5606E-03
   2    9.997       8.886       7.766       6.649       5.550       4.471       3.398       2.306       1.175      3.5099E-03
   3    9.997       8.856       7.706       6.564       5.451       4.375       3.320       2.253       1.148      3.4307E-03
   4    9.997       8.829       7.652       6.487       5.362       4.290       3.251       2.206       1.125      3.3620E-03
   5    9.997       8.822       7.637       6.464       5.335       4.264       3.231       2.194       1.119      3.3441E-03
   6    9.997       8.841       7.674       6.517       5.396       4.323       3.280       2.228       1.137      3.3962E-03
   7    9.997       8.880       7.752       6.627       5.523       4.447       3.382       2.298       1.172      3.5033E-03
   8    9.997       8.927       7.843       6.754       5.669       4.589       3.500       2.381       1.214      3.6284E-03
   9    9.997       8.965       7.919       6.859       5.789       4.706       3.598       2.449       1.249      3.7336E-03
  10    9.997       8.987       7.960       6.917       5.856       4.771       3.653       2.487       1.269      3.7923E-03

 HEAD WILL BE SAVED ON UNIT   51 AT END OF TIME STEP   54, STRESS PERIOD    5

 DRAWDOWN WILL BE SAVED ON UNIT   52 AT END OF TIME STEP   54, STRESS PERIOD    5
1
  VOLUMETRIC BUDGET FOR ENTIRE MODEL AT END OF TIME STEP   54, STRESS PERIOD   5
  ------------------------------------------------------------------------------

     CUMULATIVE VOLUMES      L**3       RATES FOR THIS TIME STEP      L**3/T
     ------------------                 ------------------------

           IN:                                      IN:
           ---                                      ---
             STORAGE =      532708.4375               STORAGE =          70.2260
       CONSTANT HEAD =           0.0000         CONSTANT HEAD =           0.0000
               WELLS =           0.0000                 WELLS =           0.0000
     HEAD DEP BOUNDS =      116785.8906       HEAD DEP BOUNDS =         657.6481

            TOTAL IN =      649494.3125              TOTAL IN =         727.8741

          OUT:                                     OUT:
          ----                                     ----
             STORAGE =       12866.6201               STORAGE =         132.4007
       CONSTANT HEAD =           0.0000         CONSTANT HEAD =           0.0000
               WELLS =      100000.0000                 WELLS =           0.0000
     HEAD DEP BOUNDS =      536629.6250       HEAD DEP BOUNDS =         595.4736

           TOTAL OUT =      649496.2500             TOTAL OUT =         727.8743

            IN - OUT =          -1.9375              IN - OUT =      -1.2207E-04

 PERCENT DISCREPANCY =          -0.00     PERCENT DISCREPANCY =          -0.00






         TIME SUMMARY AT END OF TIME STEP   54 IN STRESS PERIOD    5
                    SECONDS     MINUTES      HOURS       DAYS        YEARS
                    -----------------------------------------------------------
   TIME STEP LENGTH  86400.      1440.0      24.000      1.0000     2.73785E-03
 STRESS PERIOD TIME 4.66560E+06  77760.      1296.0      54.000     0.14784    
         TOTAL TIME 3.06720E+07 5.11200E+05  8520.0      355.00     0.97194    
1
 
 SOLVING FOR HEAD 

 OUTPUT CONTROL FOR STRESS PERIOD    5   TIME STEP   55
    SAVE HEAD FOR ALL LAYERS
    SAVE DRAWDOWN FOR ALL LAYERS
    SAVE BUDGET
    PRINT HEAD FOR ALL LAYERS
    PRINT BUDGET
 UBDSV1 SAVING "         STORAGE" ON UNIT  53 AT TIME STEP 55, STRESS PERIOD   5
 UBDSV2 SAVING "   CONSTANT HEAD" ON UNIT  53 AT TIME STEP 55, STRESS PERIOD   5
 UBDSV1 SAVING "FLOW RIGHT FACE " ON UNIT  53 AT TIME STEP 55, STRESS PERIOD   5
 UBDSV1 SAVING "FLOW FRONT FACE " ON UNIT  53 AT TIME STEP 55, STRESS PERIOD   5
 UBDSV1 SAVING "FLOW LOWER FACE " ON UNIT  53 AT TIME STEP 55, STRESS PERIOD   5
1
              HEAD IN LAYER   1 AT END OF TIME STEP  55 IN STRESS PERIOD    5
  ---------------------------------------------------------------------------

            1           2           3           4           5           6           7           8           9          10
 ........................................................................................................................
   1    9.997       8.909       7.809       6.708       5.617       4.537       3.454       2.346       1.196      1.6491E-03
   2    9.997       8.889       7.769       6.652       5.552       4.474       3.403       2.311       1.179      1.6237E-03
   3    9.997       8.858       7.706       6.562       5.449       4.375       3.322       2.256       1.152      1.5841E-03
   4    9.997       8.830       7.650       6.482       5.356       4.285       3.250       2.208       1.128      1.5496E-03
   5    9.997       8.822       7.634       6.458       5.327       4.258       3.228       2.194       1.121      1.5404E-03
   6    9.997       8.841       7.672       6.512       5.389       4.318       3.279       2.229       1.139      1.5663E-03
   7    9.997       8.882       7.753       6.626       5.521       4.446       3.384       2.302       1.176      1.6195E-03
   8    9.997       8.929       7.846       6.756       5.671       4.593       3.505       2.386       1.219      1.6819E-03
   9    9.998       8.969       7.923       6.864       5.795       4.713       3.605       2.456       1.255      1.7344E-03
  10    9.998       8.991       7.966       6.923       5.863       4.779       3.660       2.495       1.275      1.7638E-03
1
              HEAD IN LAYER   2 AT END OF TIME STEP  55 IN STRESS PERIOD    5
  ---------------------------------------------------------------------------

            1           2           3           4           5           6           7           8           9          10
 ........................................................................................................................
   1    9.997       8.907       7.806       6.705       5.614       4.533       3.450       2.342       1.194      3.2792E-03
   2    9.997       8.888       7.768       6.651       5.551       4.473       3.400       2.308       1.177      3.2320E-03
   3    9.997       8.857       7.707       6.564       5.451       4.376       3.322       2.254       1.150      3.1584E-03
   4    9.997       8.830       7.653       6.487       5.362       4.290       3.252       2.208       1.127      3.0944E-03
   5    9.997       8.823       7.637       6.464       5.334       4.264       3.232       2.195       1.121      3.0776E-03
   6    9.997       8.842       7.675       6.517       5.395       4.323       3.281       2.229       1.138      3.1260E-03
   7    9.997       8.882       7.753       6.628       5.523       4.448       3.384       2.300       1.174      3.2256E-03
   8    9.997       8.928       7.844       6.755       5.670       4.591       3.502       2.383       1.216      3.3418E-03
   9    9.997       8.967       7.920       6.861       5.791       4.709       3.601       2.452       1.252      3.4395E-03
  10    9.997       8.988       7.962       6.919       5.858       4.774       3.655       2.490       1.272      3.4941E-03
1
              HEAD IN LAYER   3 AT END OF TIME STEP  55 IN STRESS PERIOD    5
  ---------------------------------------------------------------------------

            1           2           3           4           5           6           7           8           9          10
 ........................................................................................................................
   1    9.997       8.906       7.805       6.703       5.612       4.531       3.447       2.339       1.191      3.5326E-03
   2    9.997       8.887       7.767       6.650       5.550       4.471       3.398       2.305       1.175      3.4828E-03
   3    9.997       8.857       7.708       6.566       5.453       4.377       3.321       2.253       1.148      3.4051E-03
   4    9.997       8.831       7.655       6.491       5.366       4.294       3.253       2.207       1.126      3.3378E-03
   5    9.997       8.823       7.640       6.469       5.340       4.269       3.234       2.195       1.120      3.3204E-03
   6    9.997       8.842       7.677       6.521       5.400       4.327       3.283       2.229       1.137      3.3718E-03
   7    9.997       8.881       7.754       6.629       5.525       4.449       3.383       2.299       1.173      3.4773E-03
   8    9.997       8.927       7.844       6.755       5.669       4.589       3.500       2.380       1.214      3.6006E-03
   9    9.997       8.965       7.918       6.858       5.788       4.705       3.597       2.448       1.249      3.7043E-03
  10    9.997       8.987       7.960       6.916       5.854       4.769       3.651       2.486       1.269      3.7623E-03
1
              HEAD IN LAYER   4 AT END OF TIME STEP  55 IN STRESS PERIOD    5
  ---------------------------------------------------------------------------

            1           2           3           4           5           6           7           8           9          10
 ........................................................................................................................
   1    9.997       8.905       7.804       6.702       5.611       4.529       3.445       2.337       1.190      3.5563E-03
   2    9.997       8.886       7.766       6.650       5.550       4.471       3.397       2.304       1.173      3.5066E-03
   3    9.997       8.857       7.708       6.567       5.454       4.378       3.321       2.252       1.148      3.4291E-03
   4    9.997       8.831       7.656       6.493       5.369       4.295       3.254       2.207       1.125      3.3621E-03
   5    9.997       8.824       7.641       6.471       5.343       4.271       3.235       2.195       1.119      3.3450E-03
   6    9.997       8.842       7.678       6.523       5.402       4.329       3.284       2.229       1.137      3.3964E-03
   7    9.997       8.881       7.754       6.630       5.526       4.450       3.383       2.298       1.172      3.5018E-03
   8    9.997       8.927       7.843       6.754       5.669       4.589       3.499       2.379       1.213      3.6251E-03
   9    9.997       8.965       7.917       6.857       5.787       4.704       3.595       2.447       1.248      3.7289E-03
  10    9.997       8.986       7.958       6.914       5.852       4.767       3.649       2.484       1.267      3.7871E-03

 HEAD WILL BE SAVED ON UNIT   51 AT END OF TIME STEP   55, STRESS PERIOD    5

 DRAWDOWN WILL BE SAVED ON UNIT   52 AT END OF TIME STEP   55, STRESS PERIOD    5
1
  VOLUMETRIC BUDGET FOR ENTIRE MODEL AT END OF TIME STEP   55, STRESS PERIOD   5
  ------------------------------------------------------------------------------

     CUMULATIVE VOLUMES      L**3       RATES FOR THIS TIME STEP      L**3/T
     ------------------                 ------------------------

           IN:                                      IN:
           ---                                      ---
             STORAGE =      532776.3125               STORAGE =          67.8576
       CONSTANT HEAD =           0.0000         CONSTANT HEAD =           0.0000
               WELLS =           0.0000                 WELLS =           0.0000
     HEAD DEP BOUNDS =      117443.2344       HEAD DEP BOUNDS =         657.3418

            TOTAL IN =      650219.5625              TOTAL IN =         725.1994

          OUT:                                     OUT:
          ----                                     ----
             STORAGE =       12996.7539               STORAGE =         130.1340
       CONSTANT HEAD =           0.0000         CONSTANT HEAD =           0.0000
               WELLS =      100000.0000                 WELLS =           0.0000
     HEAD DEP BOUNDS =      537224.6875       HEAD DEP BOUNDS =         595.0754

           TOTAL OUT =      650221.4375             TOTAL OUT =         725.2094

            IN - OUT =          -1.8750              IN - OUT =      -9.9487E-03

 PERCENT DISCREPANCY =          -0.00     PERCENT DISCREPANCY =          -0.00






         TIME SUMMARY AT END OF TIME STEP   55 IN STRESS PERIOD    5
                    SECONDS     MINUTES      HOURS       DAYS        YEARS
                    -----------------------------------------------------------
   TIME STEP LENGTH  86400.      1440.0      24.000      1.0000     2.73785E-03
 STRESS PERIOD TIME 4.75200E+06  79200.      1320.0      55.000     0.15058    
         TOTAL TIME 3.07584E+07 5.12640E+05  8544.0      356.00     0.97467    
1
 
 SOLVING FOR HEAD 

 OUTPUT CONTROL FOR STRESS PERIOD    5   TIME STEP   56
    SAVE HEAD FOR ALL LAYERS
    SAVE DRAWDOWN FOR ALL LAYERS
    SAVE BUDGET
    PRINT HEAD FOR ALL LAYERS
    PRINT BUDGET
 UBDSV1 SAVING "         STORAGE" ON UNIT  53 AT TIME STEP 56, STRESS PERIOD   5
 UBDSV2 SAVING "   CONSTANT HEAD" ON UNIT  53 AT TIME STEP 56, STRESS PERIOD   5
 UBDSV1 SAVING "FLOW RIGHT FACE " ON UNIT  53 AT TIME STEP 56, STRESS PERIOD   5
 UBDSV1 SAVING "FLOW FRONT FACE " ON UNIT  53 AT TIME STEP 56, STRESS PERIOD   5
 UBDSV1 SAVING "FLOW LOWER FACE " ON UNIT  53 AT TIME STEP 56, STRESS PERIOD   5
1
              HEAD IN LAYER   1 AT END OF TIME STEP  56 IN STRESS PERIOD    5
  ---------------------------------------------------------------------------

            1           2           3           4           5           6           7           8           9          10
 ........................................................................................................................
   1    9.997       8.909       7.808       6.706       5.615       4.535       3.451       2.343       1.195      1.6469E-03
   2    9.997       8.889       7.769       6.652       5.552       4.474       3.401       2.309       1.178      1.6221E-03
   3    9.997       8.859       7.708       6.566       5.452       4.377       3.323       2.256       1.151      1.5832E-03
   4    9.997       8.832       7.654       6.488       5.363       4.291       3.253       2.209       1.128      1.5496E-03
   5    9.997       8.824       7.638       6.465       5.335       4.265       3.233       2.196       1.122      1.5408E-03
   6    9.997       8.843       7.676       6.518       5.396       4.324       3.282       2.230       1.139      1.5663E-03
   7    9.997       8.883       7.755       6.629       5.524       4.449       3.385       2.301       1.175      1.6187E-03
   8    9.997       8.929       7.846       6.757       5.672       4.592       3.504       2.384       1.218      1.6804E-03
   9    9.998       8.968       7.922       6.862       5.793       4.710       3.602       2.453       1.253      1.7321E-03
  10    9.998       8.990       7.963       6.920       5.859       4.775       3.657       2.491       1.273      1.7611E-03
1
              HEAD IN LAYER   2 AT END OF TIME STEP  56 IN STRESS PERIOD    5
  ---------------------------------------------------------------------------

            1           2           3           4           5           6           7           8           9          10
 ........................................................................................................................
   1    9.997       8.907       7.805       6.704       5.612       4.531       3.447       2.340       1.192      3.2752E-03
   2    9.997       8.888       7.768       6.651       5.552       4.472       3.399       2.306       1.176      3.2290E-03
   3    9.997       8.858       7.709       6.568       5.455       4.379       3.322       2.254       1.149      3.1569E-03
   4    9.997       8.832       7.657       6.493       5.368       4.295       3.255       2.209       1.127      3.0945E-03
   5    9.997       8.825       7.642       6.471       5.343       4.271       3.236       2.196       1.121      3.0784E-03
   6    9.997       8.844       7.679       6.523       5.402       4.329       3.284       2.230       1.138      3.1262E-03
   7    9.997       8.882       7.755       6.631       5.527       4.450       3.385       2.300       1.174      3.2242E-03
   8    9.997       8.928       7.845       6.756       5.670       4.590       3.501       2.381       1.215      3.3388E-03
   9    9.997       8.966       7.919       6.859       5.789       4.706       3.598       2.449       1.250      3.4352E-03
  10    9.997       8.987       7.960       6.916       5.854       4.770       3.652       2.487       1.270      3.4892E-03
1
              HEAD IN LAYER   3 AT END OF TIME STEP  56 IN STRESS PERIOD    5
  ---------------------------------------------------------------------------

            1           2           3           4           5           6           7           8           9          10
 ........................................................................................................................
   1    9.997       8.906       7.804       6.702       5.610       4.529       3.444       2.337       1.190      3.5284E-03
   2    9.997       8.887       7.767       6.651       5.551       4.471       3.397       2.304       1.173      3.4796E-03
   3    9.997       8.858       7.710       6.569       5.457       4.380       3.322       2.253       1.148      3.4036E-03
   4    9.997       8.833       7.659       6.497       5.373       4.299       3.257       2.208       1.126      3.3380E-03
   5    9.997       8.826       7.645       6.476       5.348       4.276       3.238       2.197       1.120      3.3214E-03
   6    9.997       8.844       7.681       6.527       5.407       4.333       3.286       2.230       1.137      3.3720E-03
   7    9.997       8.882       7.756       6.632       5.529       4.451       3.384       2.299       1.172      3.4759E-03
   8    9.997       8.927       7.844       6.755       5.670       4.589       3.499       2.379       1.213      3.5974E-03
   9    9.997       8.965       7.917       6.856       5.786       4.703       3.594       2.446       1.248      3.6997E-03
  10    9.997       8.986       7.958       6.913       5.851       4.766       3.647       2.483       1.267      3.7571E-03
1
              HEAD IN LAYER   4 AT END OF TIME STEP  56 IN STRESS PERIOD    5
  ---------------------------------------------------------------------------

            1           2           3           4           5           6           7           8           9          10
 ........................................................................................................................
   1    9.997       8.905       7.803       6.701       5.609       4.527       3.443       2.335       1.189      3.5521E-03
   2    9.997       8.887       7.767       6.650       5.551       4.471       3.396       2.303       1.172      3.5035E-03
   3    9.997       8.858       7.710       6.570       5.458       4.381       3.322       2.252       1.147      3.4277E-03
   4    9.997       8.833       7.660       6.499       5.375       4.301       3.257       2.208       1.125      3.3623E-03
   5    9.997       8.826       7.646       6.478       5.351       4.278       3.240       2.197       1.120      3.3460E-03
   6    9.997       8.844       7.682       6.529       5.409       4.334       3.287       2.230       1.137      3.3967E-03
   7    9.997       8.882       7.756       6.633       5.530       4.452       3.384       2.298       1.171      3.5004E-03
   8    9.997       8.927       7.843       6.754       5.669       4.588       3.498       2.377       1.212      3.6220E-03
   9    9.997       8.964       7.916       6.855       5.785       4.701       3.593       2.444       1.246      3.7244E-03
  10    9.997       8.985       7.956       6.911       5.849       4.764       3.645       2.481       1.266      3.7819E-03

 HEAD WILL BE SAVED ON UNIT   51 AT END OF TIME STEP   56, STRESS PERIOD    5

 DRAWDOWN WILL BE SAVED ON UNIT   52 AT END OF TIME STEP   56, STRESS PERIOD    5
1
  VOLUMETRIC BUDGET FOR ENTIRE MODEL AT END OF TIME STEP   56, STRESS PERIOD   5
  ------------------------------------------------------------------------------

     CUMULATIVE VOLUMES      L**3       RATES FOR THIS TIME STEP      L**3/T
     ------------------                 ------------------------

           IN:                                      IN:
           ---                                      ---
             STORAGE =      532841.9375               STORAGE =          65.6230
       CONSTANT HEAD =           0.0000         CONSTANT HEAD =           0.0000
               WELLS =           0.0000                 WELLS =           0.0000
     HEAD DEP BOUNDS =      118100.2578       HEAD DEP BOUNDS =         657.0235

            TOTAL IN =      650942.1875              TOTAL IN =         722.6465

          OUT:                                     OUT:
          ----                                     ----
             STORAGE =       13124.7246               STORAGE =         127.9709
       CONSTANT HEAD =           0.0000         CONSTANT HEAD =           0.0000
               WELLS =      100000.0000                 WELLS =           0.0000
     HEAD DEP BOUNDS =      537819.3750       HEAD DEP BOUNDS =         594.6943

           TOTAL OUT =      650944.1250             TOTAL OUT =         722.6652

            IN - OUT =          -1.9375              IN - OUT =      -1.8677E-02

 PERCENT DISCREPANCY =          -0.00     PERCENT DISCREPANCY =          -0.00






         TIME SUMMARY AT END OF TIME STEP   56 IN STRESS PERIOD    5
                    SECONDS     MINUTES      HOURS       DAYS        YEARS
                    -----------------------------------------------------------
   TIME STEP LENGTH  86400.      1440.0      24.000      1.0000     2.73785E-03
 STRESS PERIOD TIME 4.83840E+06  80640.      1344.0      56.000     0.15332    
         TOTAL TIME 3.08448E+07 5.14080E+05  8568.0      357.00     0.97741    
1
 
 SOLVING FOR HEAD 

 OUTPUT CONTROL FOR STRESS PERIOD    5   TIME STEP   57
    SAVE HEAD FOR ALL LAYERS
    SAVE DRAWDOWN FOR ALL LAYERS
    SAVE BUDGET
    PRINT HEAD FOR ALL LAYERS
    PRINT BUDGET
 UBDSV1 SAVING "         STORAGE" ON UNIT  53 AT TIME STEP 57, STRESS PERIOD   5
 UBDSV2 SAVING "   CONSTANT HEAD" ON UNIT  53 AT TIME STEP 57, STRESS PERIOD   5
 UBDSV1 SAVING "FLOW RIGHT FACE " ON UNIT  53 AT TIME STEP 57, STRESS PERIOD   5
 UBDSV1 SAVING "FLOW FRONT FACE " ON UNIT  53 AT TIME STEP 57, STRESS PERIOD   5
 UBDSV1 SAVING "FLOW LOWER FACE " ON UNIT  53 AT TIME STEP 57, STRESS PERIOD   5
1
              HEAD IN LAYER   1 AT END OF TIME STEP  57 IN STRESS PERIOD    5
  ---------------------------------------------------------------------------

            1           2           3           4           5           6           7           8           9          10
 ........................................................................................................................
   1    9.997       8.908       7.807       6.705       5.614       4.533       3.449       2.341       1.194      1.6450E-03
   2    9.997       8.889       7.769       6.653       5.553       4.474       3.400       2.308       1.177      1.6205E-03
   3    9.997       8.860       7.710       6.569       5.456       4.380       3.324       2.255       1.151      1.5825E-03
   4    9.997       8.833       7.658       6.494       5.369       4.296       3.256       2.210       1.128      1.5497E-03
   5    9.997       8.826       7.643       6.472       5.344       4.272       3.237       2.197       1.122      1.5413E-03
   6    9.997       8.845       7.680       6.524       5.403       4.330       3.285       2.231       1.139      1.5664E-03
   7    9.997       8.884       7.757       6.632       5.528       4.451       3.386       2.301       1.175      1.6180E-03
   8    9.997       8.929       7.846       6.757       5.672       4.591       3.502       2.382       1.217      1.6787E-03
   9    9.998       8.967       7.920       6.860       5.790       4.707       3.599       2.450       1.252      1.7297E-03
  10    9.998       8.988       7.961       6.917       5.856       4.771       3.653       2.488       1.271      1.7586E-03
1
              HEAD IN LAYER   2 AT END OF TIME STEP  57 IN STRESS PERIOD    5
  ---------------------------------------------------------------------------

            1           2           3           4           5           6           7           8           9          10
 ........................................................................................................................
   1    9.997       8.906       7.805       6.703       5.611       4.529       3.445       2.337       1.191      3.2714E-03
   2    9.997       8.888       7.768       6.652       5.552       4.472       3.398       2.305       1.175      3.2261E-03
   3    9.997       8.859       7.711       6.571       5.458       4.381       3.323       2.254       1.149      3.1555E-03
   4    9.997       8.834       7.661       6.499       5.375       4.301       3.258       2.210       1.127      3.0947E-03
   5    9.997       8.827       7.647       6.478       5.351       4.278       3.240       2.198       1.121      3.0793E-03
   6    9.997       8.845       7.683       6.529       5.409       4.334       3.287       2.231       1.138      3.1264E-03
   7    9.997       8.883       7.757       6.634       5.530       4.453       3.386       2.300       1.173      3.2228E-03
   8    9.997       8.928       7.845       6.756       5.671       4.590       3.500       2.380       1.214      3.3358E-03
   9    9.997       8.965       7.917       6.857       5.787       4.703       3.595       2.447       1.249      3.4310E-03
  10    9.997       8.986       7.958       6.913       5.851       4.766       3.648       2.484       1.268      3.4844E-03
1
              HEAD IN LAYER   3 AT END OF TIME STEP  57 IN STRESS PERIOD    5
  ---------------------------------------------------------------------------

            1           2           3           4           5           6           7           8           9          10
 ........................................................................................................................
   1    9.997       8.905       7.803       6.701       5.609       4.527       3.442       2.334       1.189      3.5244E-03
   2    9.997       8.887       7.767       6.651       5.551       4.471       3.396       2.302       1.172      3.4765E-03
   3    9.997       8.859       7.712       6.572       5.460       4.383       3.323       2.253       1.147      3.4022E-03
   4    9.997       8.834       7.663       6.503       5.380       4.304       3.260       2.209       1.126      3.3382E-03
   5    9.997       8.828       7.649       6.483       5.356       4.282       3.242       2.198       1.120      3.3223E-03
   6    9.997       8.846       7.685       6.532       5.413       4.338       3.289       2.231       1.137      3.3723E-03
   7    9.997       8.883       7.758       6.635       5.532       4.454       3.385       2.298       1.172      3.4745E-03
   8    9.997       8.927       7.844       6.755       5.670       4.588       3.498       2.377       1.212      3.5942E-03
   9    9.997       8.964       7.916       6.855       5.784       4.700       3.591       2.443       1.246      3.6953E-03
  10    9.997       8.985       7.956       6.910       5.847       4.762       3.644       2.480       1.265      3.7520E-03
1
              HEAD IN LAYER   4 AT END OF TIME STEP  57 IN STRESS PERIOD    5
  ---------------------------------------------------------------------------

            1           2           3           4           5           6           7           8           9          10
 ........................................................................................................................
   1    9.997       8.905       7.802       6.700       5.608       4.526       3.441       2.333       1.187      3.5481E-03
   2    9.997       8.887       7.767       6.651       5.551       4.470       3.395       2.301       1.171      3.5004E-03
   3    9.997       8.859       7.712       6.573       5.461       4.383       3.323       2.252       1.147      3.4263E-03
   4    9.997       8.834       7.664       6.505       5.382       4.306       3.260       2.209       1.125      3.3626E-03
   5    9.997       8.828       7.651       6.485       5.359       4.285       3.243       2.198       1.120      3.3470E-03
   6    9.997       8.846       7.685       6.534       5.415       4.340       3.290       2.231       1.137      3.3970E-03
   7    9.997       8.883       7.758       6.636       5.533       4.455       3.385       2.298       1.171      3.4991E-03
   8    9.997       8.927       7.843       6.755       5.669       4.588       3.497       2.376       1.211      3.6188E-03
   9    9.997       8.963       7.915       6.854       5.783       4.698       3.590       2.442       1.245      3.7200E-03
  10    9.997       8.984       7.954       6.908       5.845       4.760       3.642       2.478       1.264      3.7768E-03

 HEAD WILL BE SAVED ON UNIT   51 AT END OF TIME STEP   57, STRESS PERIOD    5

 DRAWDOWN WILL BE SAVED ON UNIT   52 AT END OF TIME STEP   57, STRESS PERIOD    5
1
  VOLUMETRIC BUDGET FOR ENTIRE MODEL AT END OF TIME STEP   57, STRESS PERIOD   5
  ------------------------------------------------------------------------------

     CUMULATIVE VOLUMES      L**3       RATES FOR THIS TIME STEP      L**3/T
     ------------------                 ------------------------

           IN:                                      IN:
           ---                                      ---
             STORAGE =      532905.4375               STORAGE =          63.4889
       CONSTANT HEAD =           0.0000         CONSTANT HEAD =           0.0000
               WELLS =           0.0000                 WELLS =           0.0000
     HEAD DEP BOUNDS =      118756.9688       HEAD DEP BOUNDS =         656.7142

            TOTAL IN =      651662.3750              TOTAL IN =         720.2031

          OUT:                                     OUT:
          ----                                     ----
             STORAGE =       13250.6133               STORAGE =         125.8885
       CONSTANT HEAD =           0.0000         CONSTANT HEAD =           0.0000
               WELLS =      100000.0000                 WELLS =           0.0000
     HEAD DEP BOUNDS =      538413.6875       HEAD DEP BOUNDS =         594.3292

           TOTAL OUT =      651664.3125             TOTAL OUT =         720.2177

            IN - OUT =          -1.9375              IN - OUT =      -1.4648E-02

 PERCENT DISCREPANCY =          -0.00     PERCENT DISCREPANCY =          -0.00






         TIME SUMMARY AT END OF TIME STEP   57 IN STRESS PERIOD    5
                    SECONDS     MINUTES      HOURS       DAYS        YEARS
                    -----------------------------------------------------------
   TIME STEP LENGTH  86400.      1440.0      24.000      1.0000     2.73785E-03
 STRESS PERIOD TIME 4.92480E+06  82080.      1368.0      57.000     0.15606    
         TOTAL TIME 3.09312E+07 5.15520E+05  8592.0      358.00     0.98015    
1
 
 SOLVING FOR HEAD 

 OUTPUT CONTROL FOR STRESS PERIOD    5   TIME STEP   58
    SAVE HEAD FOR ALL LAYERS
    SAVE DRAWDOWN FOR ALL LAYERS
    SAVE BUDGET
    PRINT HEAD FOR ALL LAYERS
    PRINT BUDGET
 UBDSV1 SAVING "         STORAGE" ON UNIT  53 AT TIME STEP 58, STRESS PERIOD   5
 UBDSV2 SAVING "   CONSTANT HEAD" ON UNIT  53 AT TIME STEP 58, STRESS PERIOD   5
 UBDSV1 SAVING "FLOW RIGHT FACE " ON UNIT  53 AT TIME STEP 58, STRESS PERIOD   5
 UBDSV1 SAVING "FLOW FRONT FACE " ON UNIT  53 AT TIME STEP 58, STRESS PERIOD   5
 UBDSV1 SAVING "FLOW LOWER FACE " ON UNIT  53 AT TIME STEP 58, STRESS PERIOD   5
1
              HEAD IN LAYER   1 AT END OF TIME STEP  58 IN STRESS PERIOD    5
  ---------------------------------------------------------------------------

            1           2           3           4           5           6           7           8           9          10
 ........................................................................................................................
   1    9.997       8.908       7.806       6.704       5.612       4.531       3.446       2.339       1.192      1.6430E-03
   2    9.997       8.889       7.770       6.653       5.553       4.473       3.399       2.306       1.176      1.6189E-03
   3    9.997       8.860       7.712       6.572       5.459       4.382       3.325       2.255       1.150      1.5817E-03
   4    9.997       8.835       7.662       6.500       5.376       4.302       3.259       2.211       1.128      1.5498E-03
   5    9.997       8.828       7.648       6.479       5.352       4.279       3.241       2.199       1.122      1.5417E-03
   6    9.997       8.847       7.684       6.530       5.410       4.335       3.288       2.232       1.139      1.5665E-03
   7    9.997       8.885       7.759       6.635       5.531       4.454       3.387       2.301       1.174      1.6174E-03
   8    9.997       8.929       7.846       6.757       5.672       4.591       3.501       2.381       1.216      1.6771E-03
   9    9.998       8.967       7.919       6.858       5.788       4.705       3.596       2.448       1.250      1.7275E-03
  10    9.998       8.987       7.959       6.915       5.852       4.767       3.649       2.485       1.269      1.7560E-03
1
              HEAD IN LAYER   2 AT END OF TIME STEP  58 IN STRESS PERIOD    5
  ---------------------------------------------------------------------------

            1           2           3           4           5           6           7           8           9          10
 ........................................................................................................................
   1    9.997       8.906       7.804       6.702       5.610       4.528       3.443       2.335       1.190      3.2677E-03
   2    9.997       8.888       7.769       6.652       5.552       4.472       3.397       2.303       1.173      3.2232E-03
   3    9.997       8.860       7.713       6.574       5.462       4.384       3.324       2.254       1.148      3.1542E-03
   4    9.997       8.836       7.665       6.505       5.382       4.306       3.261       2.211       1.127      3.0949E-03
   5    9.997       8.829       7.651       6.485       5.359       4.284       3.244       2.199       1.122      3.0802E-03
   6    9.997       8.847       7.686       6.535       5.415       4.340       3.290       2.232       1.138      3.1267E-03
   7    9.997       8.884       7.759       6.637       5.534       4.455       3.387       2.300       1.173      3.2216E-03
   8    9.997       8.928       7.845       6.756       5.671       4.589       3.499       2.378       1.213      3.3329E-03
   9    9.997       8.965       7.916       6.855       5.784       4.701       3.592       2.444       1.247      3.4268E-03
  10    9.997       8.985       7.956       6.910       5.848       4.762       3.644       2.481       1.266      3.4796E-03
1
              HEAD IN LAYER   3 AT END OF TIME STEP  58 IN STRESS PERIOD    5
  ---------------------------------------------------------------------------

            1           2           3           4           5           6           7           8           9          10
 ........................................................................................................................
   1    9.997       8.905       7.802       6.700       5.608       4.525       3.440       2.332       1.187      3.5205E-03
   2    9.997       8.887       7.768       6.652       5.552       4.471       3.395       2.301       1.171      3.4736E-03
   3    9.997       8.860       7.714       6.575       5.464       4.385       3.324       2.253       1.147      3.4009E-03
   4    9.997       8.836       7.667       6.508       5.386       4.310       3.263       2.211       1.126      3.3385E-03
   5    9.997       8.830       7.654       6.490       5.364       4.289       3.246       2.200       1.121      3.3234E-03
   6    9.997       8.847       7.688       6.538       5.420       4.343       3.292       2.232       1.137      3.3727E-03
   7    9.997       8.884       7.760       6.638       5.535       4.456       3.386       2.298       1.171      3.4733E-03
   8    9.997       8.927       7.844       6.755       5.670       4.588       3.497       2.376       1.211      3.5912E-03
   9    9.997       8.963       7.914       6.853       5.782       4.697       3.589       2.441       1.245      3.6910E-03
  10    9.997       8.984       7.954       6.907       5.844       4.758       3.640       2.477       1.264      3.7470E-03
1
              HEAD IN LAYER   4 AT END OF TIME STEP  58 IN STRESS PERIOD    5
  ---------------------------------------------------------------------------

            1           2           3           4           5           6           7           8           9          10
 ........................................................................................................................
   1    9.997       8.904       7.802       6.700       5.607       4.524       3.439       2.331       1.186      3.5442E-03
   2    9.997       8.887       7.767       6.652       5.551       4.470       3.394       2.300       1.170      3.4975E-03
   3    9.997       8.860       7.714       6.576       5.465       4.386       3.324       2.252       1.146      3.4250E-03
   4    9.997       8.836       7.667       6.510       5.388       4.311       3.264       2.210       1.125      3.3630E-03
   5    9.997       8.830       7.655       6.492       5.367       4.291       3.247       2.200       1.120      3.3480E-03
   6    9.997       8.848       7.689       6.540       5.422       4.345       3.293       2.232       1.137      3.3974E-03
   7    9.997       8.884       7.760       6.639       5.536       4.457       3.386       2.298       1.171      3.4979E-03
   8    9.997       8.927       7.843       6.755       5.669       4.587       3.496       2.374       1.210      3.6159E-03
   9    9.997       8.963       7.913       6.852       5.780       4.696       3.587       2.439       1.243      3.7157E-03
  10    9.997       8.983       7.952       6.906       5.842       4.756       3.638       2.475       1.262      3.7718E-03

 HEAD WILL BE SAVED ON UNIT   51 AT END OF TIME STEP   58, STRESS PERIOD    5

 DRAWDOWN WILL BE SAVED ON UNIT   52 AT END OF TIME STEP   58, STRESS PERIOD    5
1
  VOLUMETRIC BUDGET FOR ENTIRE MODEL AT END OF TIME STEP   58, STRESS PERIOD   5
  ------------------------------------------------------------------------------

     CUMULATIVE VOLUMES      L**3       RATES FOR THIS TIME STEP      L**3/T
     ------------------                 ------------------------

           IN:                                      IN:
           ---                                      ---
             STORAGE =      532966.8750               STORAGE =          61.4104
       CONSTANT HEAD =           0.0000         CONSTANT HEAD =           0.0000
               WELLS =           0.0000                 WELLS =           0.0000
     HEAD DEP BOUNDS =      119413.3672       HEAD DEP BOUNDS =         656.4006

            TOTAL IN =      652380.2500              TOTAL IN =         717.8111

          OUT:                                     OUT:
          ----                                     ----
             STORAGE =       13374.4561               STORAGE =         123.8432
       CONSTANT HEAD =           0.0000         CONSTANT HEAD =           0.0000
               WELLS =      100000.0000                 WELLS =           0.0000
     HEAD DEP BOUNDS =      539007.6875       HEAD DEP BOUNDS =         593.9788

           TOTAL OUT =      652382.1250             TOTAL OUT =         717.8220

            IN - OUT =          -1.8750              IN - OUT =      -1.0864E-02

 PERCENT DISCREPANCY =          -0.00     PERCENT DISCREPANCY =          -0.00






         TIME SUMMARY AT END OF TIME STEP   58 IN STRESS PERIOD    5
                    SECONDS     MINUTES      HOURS       DAYS        YEARS
                    -----------------------------------------------------------
   TIME STEP LENGTH  86400.      1440.0      24.000      1.0000     2.73785E-03
 STRESS PERIOD TIME 5.01120E+06  83520.      1392.0      58.000     0.15880    
         TOTAL TIME 3.10176E+07 5.16960E+05  8616.0      359.00     0.98289    
1
 
 SOLVING FOR HEAD 

 OUTPUT CONTROL FOR STRESS PERIOD    5   TIME STEP   59
    SAVE HEAD FOR ALL LAYERS
    SAVE DRAWDOWN FOR ALL LAYERS
    SAVE BUDGET
    PRINT HEAD FOR ALL LAYERS
    PRINT BUDGET
 UBDSV1 SAVING "         STORAGE" ON UNIT  53 AT TIME STEP 59, STRESS PERIOD   5
 UBDSV2 SAVING "   CONSTANT HEAD" ON UNIT  53 AT TIME STEP 59, STRESS PERIOD   5
 UBDSV1 SAVING "FLOW RIGHT FACE " ON UNIT  53 AT TIME STEP 59, STRESS PERIOD   5
 UBDSV1 SAVING "FLOW FRONT FACE " ON UNIT  53 AT TIME STEP 59, STRESS PERIOD   5
 UBDSV1 SAVING "FLOW LOWER FACE " ON UNIT  53 AT TIME STEP 59, STRESS PERIOD   5
1
              HEAD IN LAYER   1 AT END OF TIME STEP  59 IN STRESS PERIOD    5
  ---------------------------------------------------------------------------

            1           2           3           4           5           6           7           8           9          10
 ........................................................................................................................
   1    9.997       8.907       7.805       6.703       5.611       4.529       3.444       2.336       1.191      1.6410E-03
   2    9.997       8.889       7.770       6.654       5.554       4.473       3.398       2.305       1.175      1.6175E-03
   3    9.997       8.861       7.714       6.575       5.463       4.385       3.326       2.255       1.150      1.5811E-03
   4    9.997       8.837       7.666       6.506       5.383       4.307       3.262       2.212       1.128      1.5499E-03
   5    9.997       8.830       7.652       6.486       5.360       4.285       3.245       2.201       1.123      1.5422E-03
   6    9.997       8.848       7.688       6.536       5.416       4.341       3.291       2.233       1.140      1.5667E-03
   7    9.997       8.886       7.761       6.638       5.535       4.457       3.388       2.301       1.174      1.6167E-03
   8    9.997       8.929       7.846       6.757       5.672       4.591       3.500       2.379       1.214      1.6757E-03
   9    9.998       8.966       7.917       6.857       5.786       4.702       3.593       2.445       1.249      1.7254E-03
  10    9.998       8.986       7.957       6.912       5.849       4.764       3.646       2.482       1.268      1.7534E-03
1
              HEAD IN LAYER   2 AT END OF TIME STEP  59 IN STRESS PERIOD    5
  ---------------------------------------------------------------------------

            1           2           3           4           5           6           7           8           9          10
 ........................................................................................................................
   1    9.997       8.906       7.803       6.701       5.609       4.526       3.441       2.333       1.188      3.2640E-03
   2    9.997       8.888       7.769       6.653       5.553       4.472       3.396       2.302       1.172      3.2205E-03
   3    9.997       8.861       7.715       6.577       5.465       4.386       3.325       2.254       1.148      3.1530E-03
   4    9.997       8.837       7.668       6.511       5.388       4.311       3.264       2.212       1.127      3.0952E-03
   5    9.997       8.831       7.656       6.492       5.366       4.291       3.248       2.201       1.122      3.0812E-03
   6    9.997       8.849       7.690       6.540       5.422       4.345       3.293       2.233       1.139      3.1270E-03
   7    9.997       8.885       7.761       6.640       5.537       4.458       3.388       2.299       1.172      3.2205E-03
   8    9.997       8.928       7.845       6.756       5.671       4.589       3.497       2.377       1.212      3.3301E-03
   9    9.997       8.964       7.915       6.854       5.782       4.698       3.589       2.442       1.246      3.4228E-03
  10    9.997       8.984       7.954       6.908       5.844       4.759       3.641       2.478       1.265      3.4749E-03
1
              HEAD IN LAYER   3 AT END OF TIME STEP  59 IN STRESS PERIOD    5
  ---------------------------------------------------------------------------

            1           2           3           4           5           6           7           8           9          10
 ........................................................................................................................
   1    9.997       8.904       7.802       6.700       5.607       4.524       3.438       2.330       1.186      3.5166E-03
   2    9.997       8.887       7.768       6.652       5.552       4.471       3.394       2.300       1.170      3.4708E-03
   3    9.997       8.861       7.716       6.579       5.467       4.388       3.325       2.252       1.146      3.3997E-03
   4    9.997       8.838       7.670       6.514       5.392       4.315       3.266       2.212       1.126      3.3389E-03
   5    9.997       8.832       7.658       6.496       5.371       4.295       3.250       2.201       1.121      3.3245E-03
   6    9.997       8.849       7.692       6.543       5.426       4.348       3.295       2.233       1.138      3.3732E-03
   7    9.997       8.885       7.762       6.641       5.539       4.459       3.387       2.298       1.171      3.4721E-03
   8    9.997       8.927       7.844       6.756       5.670       4.587       3.495       2.374       1.210      3.5883E-03
   9    9.997       8.963       7.913       6.851       5.780       4.695       3.586       2.438       1.243      3.6867E-03
  10    9.997       8.982       7.952       6.905       5.841       4.755       3.637       2.474       1.262      3.7421E-03
1
              HEAD IN LAYER   4 AT END OF TIME STEP  59 IN STRESS PERIOD    5
  ---------------------------------------------------------------------------

            1           2           3           4           5           6           7           8           9          10
 ........................................................................................................................
   1    9.997       8.904       7.801       6.699       5.606       4.522       3.436       2.329       1.185      3.5404E-03
   2    9.997       8.887       7.768       6.652       5.552       4.470       3.393       2.299       1.169      3.4947E-03
   3    9.997       8.861       7.716       6.579       5.468       4.388       3.325       2.252       1.146      3.4239E-03
   4    9.997       8.838       7.671       6.516       5.394       4.316       3.266       2.212       1.126      3.3634E-03
   5    9.997       8.832       7.659       6.498       5.374       4.297       3.251       2.202       1.121      3.3492E-03
   6    9.997       8.849       7.693       6.545       5.428       4.350       3.296       2.233       1.137      3.3979E-03
   7    9.997       8.885       7.762       6.642       5.540       4.459       3.387       2.298       1.170      3.4968E-03
   8    9.997       8.927       7.844       6.755       5.670       4.587       3.494       2.373       1.209      3.6129E-03
   9    9.997       8.962       7.912       6.850       5.778       4.693       3.584       2.437       1.242      3.7114E-03
  10    9.997       8.982       7.950       6.903       5.839       4.753       3.635       2.472       1.261      3.7668E-03

 HEAD WILL BE SAVED ON UNIT   51 AT END OF TIME STEP   59, STRESS PERIOD    5

 DRAWDOWN WILL BE SAVED ON UNIT   52 AT END OF TIME STEP   59, STRESS PERIOD    5
1
  VOLUMETRIC BUDGET FOR ENTIRE MODEL AT END OF TIME STEP   59, STRESS PERIOD   5
  ------------------------------------------------------------------------------

     CUMULATIVE VOLUMES      L**3       RATES FOR THIS TIME STEP      L**3/T
     ------------------                 ------------------------

           IN:                                      IN:
           ---                                      ---
             STORAGE =      533026.2500               STORAGE =          59.3821
       CONSTANT HEAD =           0.0000         CONSTANT HEAD =           0.0000
               WELLS =           0.0000                 WELLS =           0.0000
     HEAD DEP BOUNDS =      120069.4531       HEAD DEP BOUNDS =         656.0834

            TOTAL IN =      653095.6875              TOTAL IN =         715.4655

          OUT:                                     OUT:
          ----                                     ----
             STORAGE =       13496.2803               STORAGE =         121.8245
       CONSTANT HEAD =           0.0000         CONSTANT HEAD =           0.0000
               WELLS =      100000.0000                 WELLS =           0.0000
     HEAD DEP BOUNDS =      539601.3125       HEAD DEP BOUNDS =         593.6454

           TOTAL OUT =      653097.6250             TOTAL OUT =         715.4698

            IN - OUT =          -1.9375              IN - OUT =      -4.3335E-03

 PERCENT DISCREPANCY =          -0.00     PERCENT DISCREPANCY =          -0.00






         TIME SUMMARY AT END OF TIME STEP   59 IN STRESS PERIOD    5
                    SECONDS     MINUTES      HOURS       DAYS        YEARS
                    -----------------------------------------------------------
   TIME STEP LENGTH  86400.      1440.0      24.000      1.0000     2.73785E-03
 STRESS PERIOD TIME 5.09760E+06  84960.      1416.0      59.000     0.16153    
         TOTAL TIME 3.11040E+07 5.18400E+05  8640.0      360.00     0.98563    
1
 
 SOLVING FOR HEAD 

 OUTPUT CONTROL FOR STRESS PERIOD    5   TIME STEP   60
    SAVE HEAD FOR ALL LAYERS
    SAVE DRAWDOWN FOR ALL LAYERS
    SAVE BUDGET
    PRINT HEAD FOR ALL LAYERS
    PRINT BUDGET
 UBDSV1 SAVING "         STORAGE" ON UNIT  53 AT TIME STEP 60, STRESS PERIOD   5
 UBDSV2 SAVING "   CONSTANT HEAD" ON UNIT  53 AT TIME STEP 60, STRESS PERIOD   5
 UBDSV1 SAVING "FLOW RIGHT FACE " ON UNIT  53 AT TIME STEP 60, STRESS PERIOD   5
 UBDSV1 SAVING "FLOW FRONT FACE " ON UNIT  53 AT TIME STEP 60, STRESS PERIOD   5
 UBDSV1 SAVING "FLOW LOWER FACE " ON UNIT  53 AT TIME STEP 60, STRESS PERIOD   5
1
              HEAD IN LAYER   1 AT END OF TIME STEP  60 IN STRESS PERIOD    5
  ---------------------------------------------------------------------------

            1           2           3           4           5           6           7           8           9          10
 ........................................................................................................................
   1    9.997       8.907       7.805       6.703       5.610       4.527       3.442       2.334       1.189      1.6391E-03
   2    9.997       8.889       7.770       6.654       5.554       4.473       3.397       2.303       1.174      1.6160E-03
   3    9.997       8.862       7.716       6.578       5.466       4.388       3.327       2.255       1.149      1.5805E-03
   4    9.997       8.839       7.670       6.512       5.389       4.312       3.265       2.213       1.128      1.5500E-03
   5    9.997       8.833       7.657       6.493       5.367       4.292       3.249       2.202       1.123      1.5427E-03
   6    9.997       8.850       7.691       6.541       5.423       4.346       3.294       2.234       1.140      1.5668E-03
   7    9.997       8.886       7.763       6.641       5.538       4.459       3.389       2.301       1.174      1.6160E-03
   8    9.997       8.929       7.846       6.758       5.672       4.590       3.499       2.378       1.213      1.6741E-03
   9    9.998       8.965       7.916       6.855       5.784       4.699       3.591       2.443       1.247      1.7233E-03
  10    9.998       8.985       7.955       6.909       5.846       4.760       3.642       2.479       1.266      1.7510E-03
1
              HEAD IN LAYER   2 AT END OF TIME STEP  60 IN STRESS PERIOD    5
  ---------------------------------------------------------------------------

            1           2           3           4           5           6           7           8           9          10
 ........................................................................................................................
   1    9.997       8.905       7.803       6.700       5.607       4.524       3.439       2.331       1.187      3.2605E-03
   2    9.997       8.888       7.769       6.654       5.553       4.472       3.395       2.301       1.172      3.2179E-03
   3    9.997       8.862       7.717       6.580       5.469       4.389       3.326       2.253       1.148      3.1519E-03
   4    9.997       8.839       7.672       6.516       5.394       4.317       3.267       2.213       1.127      3.0956E-03
   5    9.997       8.833       7.660       6.499       5.374       4.297       3.251       2.203       1.122      3.0822E-03
   6    9.997       8.851       7.694       6.546       5.428       4.350       3.296       2.234       1.139      3.1275E-03
   7    9.997       8.886       7.763       6.643       5.540       4.460       3.389       2.299       1.172      3.2194E-03
   8    9.997       8.928       7.845       6.757       5.671       4.588       3.496       2.375       1.211      3.3274E-03
   9    9.997       8.963       7.914       6.852       5.780       4.696       3.587       2.439       1.244      3.4189E-03
  10    9.997       8.983       7.952       6.905       5.841       4.755       3.637       2.475       1.263      3.4704E-03
1
              HEAD IN LAYER   3 AT END OF TIME STEP  60 IN STRESS PERIOD    5
  ---------------------------------------------------------------------------

            1           2           3           4           5           6           7           8           9          10
 ........................................................................................................................
   1    9.997       8.904       7.801       6.699       5.606       4.522       3.436       2.328       1.185      3.5129E-03
   2    9.997       8.887       7.769       6.653       5.553       4.471       3.393       2.299       1.170      3.4680E-03
   3    9.997       8.862       7.718       6.582       5.470       4.390       3.326       2.252       1.146      3.3986E-03
   4    9.997       8.840       7.674       6.519       5.398       4.320       3.269       2.213       1.126      3.3394E-03
   5    9.997       8.834       7.662       6.503       5.379       4.301       3.254       2.203       1.122      3.3256E-03
   6    9.997       8.851       7.696       6.549       5.432       4.353       3.298       2.234       1.138      3.3737E-03
   7    9.997       8.886       7.764       6.644       5.542       4.461       3.389       2.298       1.171      3.4710E-03
   8    9.997       8.927       7.844       6.756       5.670       4.587       3.494       2.373       1.209      3.5855E-03
   9    9.997       8.962       7.912       6.850       5.778       4.692       3.583       2.436       1.242      3.6825E-03
  10    9.997       8.981       7.950       6.902       5.838       4.751       3.633       2.472       1.260      3.7372E-03
1
              HEAD IN LAYER   4 AT END OF TIME STEP  60 IN STRESS PERIOD    5
  ---------------------------------------------------------------------------

            1           2           3           4           5           6           7           8           9          10
 ........................................................................................................................
   1    9.997       8.903       7.801       6.698       5.605       4.521       3.434       2.327       1.184      3.5368E-03
   2    9.997       8.887       7.768       6.653       5.553       4.470       3.392       2.297       1.169      3.4920E-03
   3    9.997       8.862       7.718       6.582       5.471       4.391       3.326       2.252       1.145      3.4228E-03
   4    9.997       8.840       7.675       6.521       5.400       4.321       3.269       2.213       1.126      3.3639E-03
   5    9.997       8.834       7.664       6.505       5.381       4.303       3.255       2.203       1.121      3.3504E-03
   6    9.997       8.851       7.696       6.550       5.434       4.355       3.299       2.234       1.137      3.3984E-03
   7    9.997       8.886       7.764       6.645       5.543       4.462       3.388       2.298       1.170      3.4957E-03
   8    9.997       8.927       7.844       6.756       5.670       4.586       3.493       2.372       1.208      3.6101E-03
   9    9.997       8.961       7.911       6.849       5.776       4.691       3.582       2.434       1.241      3.7073E-03
  10    9.997       8.981       7.949       6.901       5.836       4.749       3.631       2.470       1.259      3.7620E-03

 HEAD WILL BE SAVED ON UNIT   51 AT END OF TIME STEP   60, STRESS PERIOD    5

 DRAWDOWN WILL BE SAVED ON UNIT   52 AT END OF TIME STEP   60, STRESS PERIOD    5
1
  VOLUMETRIC BUDGET FOR ENTIRE MODEL AT END OF TIME STEP   60, STRESS PERIOD   5
  ------------------------------------------------------------------------------

     CUMULATIVE VOLUMES      L**3       RATES FOR THIS TIME STEP      L**3/T
     ------------------                 ------------------------

           IN:                                      IN:
           ---                                      ---
             STORAGE =      533083.6250               STORAGE =          57.4048
       CONSTANT HEAD =           0.0000         CONSTANT HEAD =           0.0000
               WELLS =           0.0000                 WELLS =           0.0000
     HEAD DEP BOUNDS =      120725.2109       HEAD DEP BOUNDS =         655.7562

            TOTAL IN =      653808.8125              TOTAL IN =         713.1610

          OUT:                                     OUT:
          ----                                     ----
             STORAGE =       13616.1289               STORAGE =         119.8488
       CONSTANT HEAD =           0.0000         CONSTANT HEAD =           0.0000
               WELLS =      100000.0000                 WELLS =           0.0000
     HEAD DEP BOUNDS =      540194.6250       HEAD DEP BOUNDS =         593.3236

           TOTAL OUT =      653810.7500             TOTAL OUT =         713.1724

            IN - OUT =          -1.9375              IN - OUT =      -1.1353E-02

 PERCENT DISCREPANCY =          -0.00     PERCENT DISCREPANCY =          -0.00






         TIME SUMMARY AT END OF TIME STEP   60 IN STRESS PERIOD    5
                    SECONDS     MINUTES      HOURS       DAYS        YEARS
                    -----------------------------------------------------------
   TIME STEP LENGTH  86400.      1440.0      24.000      1.0000     2.73785E-03
 STRESS PERIOD TIME 5.18400E+06  86400.      1440.0      60.000     0.16427    
         TOTAL TIME 3.11904E+07 5.19840E+05  8664.0      361.00     0.98836    
1
 
 SOLVING FOR HEAD 

 OUTPUT CONTROL FOR STRESS PERIOD    5   TIME STEP   61
    SAVE HEAD FOR ALL LAYERS
    SAVE DRAWDOWN FOR ALL LAYERS
    SAVE BUDGET
    PRINT HEAD FOR ALL LAYERS
    PRINT BUDGET
 UBDSV1 SAVING "         STORAGE" ON UNIT  53 AT TIME STEP 61, STRESS PERIOD   5
 UBDSV2 SAVING "   CONSTANT HEAD" ON UNIT  53 AT TIME STEP 61, STRESS PERIOD   5
 UBDSV1 SAVING "FLOW RIGHT FACE " ON UNIT  53 AT TIME STEP 61, STRESS PERIOD   5
 UBDSV1 SAVING "FLOW FRONT FACE " ON UNIT  53 AT TIME STEP 61, STRESS PERIOD   5
 UBDSV1 SAVING "FLOW LOWER FACE " ON UNIT  53 AT TIME STEP 61, STRESS PERIOD   5
1
              HEAD IN LAYER   1 AT END OF TIME STEP  61 IN STRESS PERIOD    5
  ---------------------------------------------------------------------------

            1           2           3           4           5           6           7           8           9          10
 ........................................................................................................................
   1    9.997       8.907       7.804       6.702       5.609       4.526       3.440       2.332       1.188      1.6372E-03
   2    9.997       8.890       7.771       6.655       5.555       4.473       3.396       2.302       1.173      1.6145E-03
   3    9.997       8.863       7.719       6.581       5.470       4.390       3.328       2.255       1.149      1.5798E-03
   4    9.997       8.841       7.673       6.517       5.395       4.318       3.268       2.214       1.128      1.5502E-03
   5    9.997       8.835       7.661       6.500       5.375       4.298       3.253       2.204       1.123      1.5433E-03
   6    9.997       8.852       7.695       6.547       5.429       4.351       3.297       2.236       1.140      1.5670E-03
   7    9.997       8.887       7.765       6.644       5.541       4.461       3.390       2.300       1.173      1.6156E-03
   8    9.997       8.929       7.846       6.758       5.672       4.590       3.498       2.376       1.212      1.6726E-03
   9    9.998       8.964       7.915       6.853       5.782       4.697       3.588       2.441       1.246      1.7212E-03
  10    9.998       8.984       7.953       6.906       5.842       4.757       3.638       2.476       1.264      1.7485E-03
1
              HEAD IN LAYER   2 AT END OF TIME STEP  61 IN STRESS PERIOD    5
  ---------------------------------------------------------------------------

            1           2           3           4           5           6           7           8           9          10
 ........................................................................................................................
   1    9.997       8.905       7.802       6.700       5.606       4.523       3.437       2.329       1.186      3.2571E-03
   2    9.997       8.888       7.770       6.654       5.554       4.472       3.394       2.299       1.171      3.2153E-03
   3    9.997       8.863       7.719       6.583       5.472       4.391       3.328       2.253       1.147      3.1509E-03
   4    9.997       8.841       7.676       6.521       5.400       4.322       3.270       2.214       1.127      3.0960E-03
   5    9.997       8.835       7.664       6.505       5.381       4.303       3.255       2.204       1.123      3.0833E-03
   6    9.997       8.852       7.697       6.551       5.434       4.355       3.299       2.236       1.139      3.1279E-03
   7    9.997       8.887       7.765       6.646       5.543       4.463       3.390       2.299       1.172      3.2184E-03
   8    9.997       8.928       7.845       6.757       5.671       4.588       3.495       2.374       1.210      3.3247E-03
   9    9.997       8.963       7.912       6.850       5.778       4.693       3.584       2.437       1.243      3.4150E-03
  10    9.997       8.982       7.950       6.902       5.838       4.752       3.634       2.472       1.261      3.4659E-03
1
              HEAD IN LAYER   3 AT END OF TIME STEP  61 IN STRESS PERIOD    5
  ---------------------------------------------------------------------------

            1           2           3           4           5           6           7           8           9          10
 ........................................................................................................................
   1    9.997       8.904       7.801       6.698       5.605       4.520       3.434       2.326       1.183      3.5094E-03
   2    9.997       8.888       7.769       6.654       5.553       4.470       3.392       2.297       1.169      3.4654E-03
   3    9.997       8.863       7.720       6.585       5.473       4.392       3.327       2.252       1.146      3.3975E-03
   4    9.997       8.841       7.677       6.525       5.404       4.325       3.272       2.214       1.126      3.3399E-03
   5    9.997       8.836       7.667       6.509       5.386       4.307       3.257       2.205       1.122      3.3268E-03
   6    9.997       8.853       7.699       6.554       5.438       4.358       3.301       2.235       1.138      3.3742E-03
   7    9.997       8.887       7.766       6.647       5.545       4.464       3.390       2.298       1.170      3.4700E-03
   8    9.997       8.927       7.844       6.756       5.670       4.587       3.493       2.372       1.208      3.5827E-03
   9    9.997       8.961       7.911       6.848       5.776       4.690       3.581       2.434       1.240      3.6785E-03
  10    9.997       8.981       7.948       6.899       5.834       4.748       3.630       2.469       1.259      3.7325E-03
1
              HEAD IN LAYER   4 AT END OF TIME STEP  61 IN STRESS PERIOD    5
  ---------------------------------------------------------------------------

            1           2           3           4           5           6           7           8           9          10
 ........................................................................................................................
   1    9.997       8.903       7.800       6.697       5.604       4.519       3.433       2.325       1.182      3.5332E-03
   2    9.997       8.887       7.769       6.654       5.553       4.470       3.391       2.296       1.168      3.4894E-03
   3    9.997       8.863       7.720       6.585       5.474       4.393       3.327       2.252       1.145      3.4218E-03
   4    9.997       8.841       7.678       6.526       5.406       4.326       3.272       2.214       1.126      3.3645E-03
   5    9.997       8.836       7.668       6.511       5.388       4.309       3.259       2.205       1.122      3.3516E-03
   6    9.997       8.853       7.700       6.556       5.440       4.360       3.302       2.235       1.137      3.3990E-03
   7    9.997       8.887       7.766       6.648       5.546       4.464       3.389       2.298       1.169      3.4947E-03
   8    9.997       8.927       7.844       6.756       5.670       4.586       3.492       2.370       1.207      3.6074E-03
   9    9.997       8.961       7.910       6.847       5.774       4.689       3.579       2.432       1.239      3.7032E-03
  10    9.997       8.980       7.947       6.898       5.833       4.746       3.628       2.467       1.257      3.7572E-03

 HEAD WILL BE SAVED ON UNIT   51 AT END OF TIME STEP   61, STRESS PERIOD    5

 DRAWDOWN WILL BE SAVED ON UNIT   52 AT END OF TIME STEP   61, STRESS PERIOD    5
1
  VOLUMETRIC BUDGET FOR ENTIRE MODEL AT END OF TIME STEP   61, STRESS PERIOD   5
  ------------------------------------------------------------------------------

     CUMULATIVE VOLUMES      L**3       RATES FOR THIS TIME STEP      L**3/T
     ------------------                 ------------------------

           IN:                                      IN:
           ---                                      ---
             STORAGE =      533139.1250               STORAGE =          55.4930
       CONSTANT HEAD =           0.0000         CONSTANT HEAD =           0.0000
               WELLS =           0.0000                 WELLS =           0.0000
     HEAD DEP BOUNDS =      121380.6406       HEAD DEP BOUNDS =         655.4330

            TOTAL IN =      654519.7500              TOTAL IN =         710.9260

          OUT:                                     OUT:
          ----                                     ----
             STORAGE =       13734.0391               STORAGE =         117.9104
       CONSTANT HEAD =           0.0000         CONSTANT HEAD =           0.0000
               WELLS =      100000.0000                 WELLS =           0.0000
     HEAD DEP BOUNDS =      540787.6250       HEAD DEP BOUNDS =         593.0164

           TOTAL OUT =      654521.6875             TOTAL OUT =         710.9268

            IN - OUT =          -1.9375              IN - OUT =      -7.9346E-04

 PERCENT DISCREPANCY =          -0.00     PERCENT DISCREPANCY =          -0.00






         TIME SUMMARY AT END OF TIME STEP   61 IN STRESS PERIOD    5
                    SECONDS     MINUTES      HOURS       DAYS        YEARS
                    -----------------------------------------------------------
   TIME STEP LENGTH  86400.      1440.0      24.000      1.0000     2.73785E-03
 STRESS PERIOD TIME 5.27040E+06  87840.      1464.0      61.000     0.16701    
         TOTAL TIME 3.12768E+07 5.21280E+05  8688.0      362.00     0.99110    
1
 
 SOLVING FOR HEAD 

 OUTPUT CONTROL FOR STRESS PERIOD    5   TIME STEP   62
    SAVE HEAD FOR ALL LAYERS
    SAVE DRAWDOWN FOR ALL LAYERS
    SAVE BUDGET
    PRINT HEAD FOR ALL LAYERS
    PRINT BUDGET
 UBDSV1 SAVING "         STORAGE" ON UNIT  53 AT TIME STEP 62, STRESS PERIOD   5
 UBDSV2 SAVING "   CONSTANT HEAD" ON UNIT  53 AT TIME STEP 62, STRESS PERIOD   5
 UBDSV1 SAVING "FLOW RIGHT FACE " ON UNIT  53 AT TIME STEP 62, STRESS PERIOD   5
 UBDSV1 SAVING "FLOW FRONT FACE " ON UNIT  53 AT TIME STEP 62, STRESS PERIOD   5
 UBDSV1 SAVING "FLOW LOWER FACE " ON UNIT  53 AT TIME STEP 62, STRESS PERIOD   5
1
              HEAD IN LAYER   1 AT END OF TIME STEP  62 IN STRESS PERIOD    5
  ---------------------------------------------------------------------------

            1           2           3           4           5           6           7           8           9          10
 ........................................................................................................................
   1    9.997       8.906       7.804       6.701       5.608       4.524       3.438       2.330       1.187      1.6354E-03
   2    9.997       8.890       7.771       6.656       5.555       4.473       3.395       2.301       1.172      1.6132E-03
   3    9.997       8.864       7.721       6.584       5.473       4.393       3.329       2.255       1.148      1.5794E-03
   4    9.997       8.842       7.677       6.522       5.401       4.323       3.271       2.215       1.128      1.5506E-03
   5    9.997       8.837       7.666       6.506       5.382       4.304       3.256       2.205       1.124      1.5438E-03
   6    9.997       8.854       7.699       6.552       5.435       4.356       3.300       2.237       1.140      1.5672E-03
   7    9.997       8.888       7.767       6.647       5.545       4.464       3.391       2.300       1.173      1.6150E-03
   8    9.997       8.929       7.846       6.758       5.672       4.589       3.497       2.375       1.212      1.6713E-03
   9    9.997       8.964       7.914       6.852       5.780       4.694       3.585       2.438       1.244      1.7192E-03
  10    9.998       8.983       7.951       6.904       5.839       4.753       3.635       2.474       1.263      1.7461E-03
1
              HEAD IN LAYER   2 AT END OF TIME STEP  62 IN STRESS PERIOD    5
  ---------------------------------------------------------------------------

            1           2           3           4           5           6           7           8           9          10
 ........................................................................................................................
   1    9.997       8.905       7.802       6.699       5.605       4.521       3.435       2.327       1.185      3.2537E-03
   2    9.997       8.889       7.770       6.655       5.555       4.472       3.393       2.298       1.170      3.2129E-03
   3    9.997       8.864       7.721       6.586       5.475       4.394       3.329       2.253       1.147      3.1499E-03
   4    9.997       8.843       7.679       6.527       5.406       4.326       3.273       2.215       1.127      3.0965E-03
   5    9.997       8.837       7.669       6.511       5.388       4.309       3.259       2.206       1.123      3.0844E-03
   6    9.997       8.854       7.701       6.556       5.440       4.360       3.302       2.237       1.139      3.1285E-03
   7    9.997       8.888       7.767       6.649       5.547       4.465       3.391       2.299       1.171      3.2175E-03
   8    9.997       8.928       7.845       6.757       5.671       4.588       3.494       2.373       1.209      3.3222E-03
   9    9.997       8.962       7.911       6.849       5.776       4.691       3.581       2.435       1.242      3.4112E-03
  10    9.997       8.981       7.948       6.900       5.835       4.748       3.630       2.470       1.260      3.4614E-03
1
              HEAD IN LAYER   3 AT END OF TIME STEP  62 IN STRESS PERIOD    5
  ---------------------------------------------------------------------------

            1           2           3           4           5           6           7           8           9          10
 ........................................................................................................................
   1    9.997       8.904       7.800       6.698       5.604       4.519       3.432       2.325       1.182      3.5059E-03
   2    9.997       8.888       7.770       6.654       5.554       4.470       3.391       2.296       1.168      3.4629E-03
   3    9.997       8.864       7.722       6.587       5.477       4.395       3.329       2.252       1.145      3.3966E-03
   4    9.997       8.843       7.681       6.530       5.410       4.329       3.274       2.215       1.127      3.3405E-03
   5    9.997       8.838       7.671       6.515       5.392       4.313       3.261       2.206       1.122      3.3281E-03
   6    9.997       8.854       7.703       6.559       5.443       4.363       3.304       2.237       1.138      3.3748E-03
   7    9.997       8.888       7.768       6.650       5.548       4.466       3.391       2.298       1.170      3.4691E-03
   8    9.997       8.927       7.845       6.757       5.671       4.586       3.492       2.370       1.207      3.5800E-03
   9    9.997       8.961       7.910       6.847       5.774       4.688       3.578       2.432       1.239      3.6745E-03
  10    9.997       8.980       7.946       6.897       5.831       4.745       3.626       2.466       1.257      3.7278E-03
1
              HEAD IN LAYER   4 AT END OF TIME STEP  62 IN STRESS PERIOD    5
  ---------------------------------------------------------------------------

            1           2           3           4           5           6           7           8           9          10
 ........................................................................................................................
   1    9.997       8.903       7.800       6.697       5.603       4.518       3.431       2.323       1.181      3.5298E-03
   2    9.997       8.887       7.769       6.654       5.554       4.470       3.391       2.295       1.167      3.4869E-03
   3    9.997       8.863       7.722       6.588       5.477       4.395       3.328       2.252       1.145      3.4208E-03
   4    9.997       8.843       7.682       6.531       5.412       4.331       3.275       2.215       1.126      3.3651E-03
   5    9.997       8.838       7.672       6.517       5.395       4.315       3.262       2.206       1.122      3.3529E-03
   6    9.997       8.854       7.703       6.561       5.445       4.365       3.304       2.237       1.138      3.3997E-03
   7    9.997       8.888       7.768       6.651       5.549       4.467       3.390       2.298       1.169      3.4938E-03
   8    9.997       8.927       7.844       6.756       5.670       4.586       3.491       2.369       1.206      3.6048E-03
   9    9.997       8.960       7.909       6.846       5.772       4.686       3.577       2.430       1.238      3.6992E-03
  10    9.997       8.979       7.945       6.896       5.830       4.743       3.625       2.464       1.256      3.7526E-03

 HEAD WILL BE SAVED ON UNIT   51 AT END OF TIME STEP   62, STRESS PERIOD    5

 DRAWDOWN WILL BE SAVED ON UNIT   52 AT END OF TIME STEP   62, STRESS PERIOD    5
1
  VOLUMETRIC BUDGET FOR ENTIRE MODEL AT END OF TIME STEP   62, STRESS PERIOD   5
  ------------------------------------------------------------------------------

     CUMULATIVE VOLUMES      L**3       RATES FOR THIS TIME STEP      L**3/T
     ------------------                 ------------------------

           IN:                                      IN:
           ---                                      ---
             STORAGE =      533192.7500               STORAGE =          53.6263
       CONSTANT HEAD =           0.0000         CONSTANT HEAD =           0.0000
               WELLS =           0.0000                 WELLS =           0.0000
     HEAD DEP BOUNDS =      122035.7422       HEAD DEP BOUNDS =         655.1008

            TOTAL IN =      655228.5000              TOTAL IN =         708.7271

          OUT:                                     OUT:
          ----                                     ----
             STORAGE =       13850.0449               STORAGE =         116.0056
       CONSTANT HEAD =           0.0000         CONSTANT HEAD =           0.0000
               WELLS =      100000.0000                 WELLS =           0.0000
     HEAD DEP BOUNDS =      541380.3750       HEAD DEP BOUNDS =         592.7243

           TOTAL OUT =      655230.4375             TOTAL OUT =         708.7299

            IN - OUT =          -1.9375              IN - OUT =      -2.8687E-03

 PERCENT DISCREPANCY =          -0.00     PERCENT DISCREPANCY =          -0.00






         TIME SUMMARY AT END OF TIME STEP   62 IN STRESS PERIOD    5
                    SECONDS     MINUTES      HOURS       DAYS        YEARS
                    -----------------------------------------------------------
   TIME STEP LENGTH  86400.      1440.0      24.000      1.0000     2.73785E-03
 STRESS PERIOD TIME 5.35680E+06  89280.      1488.0      62.000     0.16975    
         TOTAL TIME 3.13632E+07 5.22720E+05  8712.0      363.00     0.99384    
1
 
 SOLVING FOR HEAD 

 OUTPUT CONTROL FOR STRESS PERIOD    5   TIME STEP   63
    SAVE HEAD FOR ALL LAYERS
    SAVE DRAWDOWN FOR ALL LAYERS
    SAVE BUDGET
    PRINT HEAD FOR ALL LAYERS
    PRINT BUDGET
 UBDSV1 SAVING "         STORAGE" ON UNIT  53 AT TIME STEP 63, STRESS PERIOD   5
 UBDSV2 SAVING "   CONSTANT HEAD" ON UNIT  53 AT TIME STEP 63, STRESS PERIOD   5
 UBDSV1 SAVING "FLOW RIGHT FACE " ON UNIT  53 AT TIME STEP 63, STRESS PERIOD   5
 UBDSV1 SAVING "FLOW FRONT FACE " ON UNIT  53 AT TIME STEP 63, STRESS PERIOD   5
 UBDSV1 SAVING "FLOW LOWER FACE " ON UNIT  53 AT TIME STEP 63, STRESS PERIOD   5
1
              HEAD IN LAYER   1 AT END OF TIME STEP  63 IN STRESS PERIOD    5
  ---------------------------------------------------------------------------

            1           2           3           4           5           6           7           8           9          10
 ........................................................................................................................
   1    9.997       8.906       7.803       6.700       5.607       4.523       3.436       2.328       1.186      1.6336E-03
   2    9.997       8.890       7.772       6.656       5.556       4.473       3.394       2.299       1.171      1.6120E-03
   3    9.997       8.865       7.723       6.587       5.476       4.395       3.330       2.255       1.148      1.5788E-03
   4    9.997       8.844       7.680       6.528       5.407       4.327       3.274       2.216       1.129      1.5508E-03
   5    9.997       8.839       7.670       6.512       5.389       4.310       3.260       2.207       1.124      1.5445E-03
   6    9.997       8.855       7.702       6.557       5.441       4.361       3.303       2.238       1.140      1.5675E-03
   7    9.997       8.889       7.769       6.650       5.548       4.466       3.392       2.300       1.173      1.6144E-03
   8    9.997       8.929       7.847       6.759       5.673       4.589       3.495       2.374       1.211      1.6699E-03
   9    9.997       8.963       7.913       6.850       5.778       4.692       3.583       2.436       1.243      1.7172E-03
  10    9.998       8.982       7.950       6.901       5.836       4.750       3.632       2.471       1.261      1.7438E-03
1
              HEAD IN LAYER   2 AT END OF TIME STEP  63 IN STRESS PERIOD    5
  ---------------------------------------------------------------------------

            1           2           3           4           5           6           7           8           9          10
 ........................................................................................................................
   1    9.997       8.904       7.801       6.698       5.605       4.520       3.433       2.325       1.183      3.2505E-03
   2    9.997       8.889       7.771       6.656       5.555       4.472       3.392       2.297       1.169      3.2106E-03
   3    9.997       8.865       7.723       6.589       5.478       4.396       3.330       2.253       1.147      3.1491E-03
   4    9.997       8.844       7.683       6.532       5.412       4.331       3.276       2.216       1.128      3.0971E-03
   5    9.997       8.839       7.673       6.517       5.394       4.315       3.263       2.207       1.123      3.0856E-03
   6    9.997       8.856       7.704       6.561       5.445       4.365       3.305       2.238       1.139      3.1290E-03
   7    9.997       8.889       7.769       6.652       5.550       4.467       3.392       2.299       1.171      3.2166E-03
   8    9.997       8.928       7.846       6.758       5.672       4.587       3.493       2.371       1.208      3.3197E-03
   9    9.997       8.961       7.910       6.847       5.774       4.688       3.579       2.432       1.240      3.4075E-03
  10    9.997       8.980       7.947       6.897       5.832       4.745       3.627       2.467       1.258      3.4571E-03
1
              HEAD IN LAYER   3 AT END OF TIME STEP  63 IN STRESS PERIOD    5
  ---------------------------------------------------------------------------

            1           2           3           4           5           6           7           8           9          10
 ........................................................................................................................
   1    9.997       8.903       7.800       6.697       5.603       4.518       3.430       2.323       1.181      3.5025E-03
   2    9.997       8.888       7.770       6.655       5.555       4.471       3.391       2.295       1.167      3.4604E-03
   3    9.997       8.865       7.724       6.590       5.480       4.397       3.330       2.252       1.145      3.3957E-03
   4    9.997       8.845       7.684       6.535       5.415       4.334       3.277       2.216       1.127      3.3411E-03
   5    9.997       8.840       7.675       6.521       5.399       4.318       3.265       2.208       1.123      3.3294E-03
   6    9.997       8.856       7.706       6.564       5.449       4.368       3.307       2.238       1.138      3.3755E-03
   7    9.997       8.889       7.770       6.653       5.551       4.468       3.392       2.298       1.170      3.4682E-03
   8    9.997       8.927       7.845       6.757       5.671       4.586       3.491       2.369       1.206      3.5775E-03
   9    9.997       8.960       7.908       6.845       5.772       4.686       3.576       2.429       1.238      3.6706E-03
  10    9.997       8.979       7.944       6.895       5.828       4.741       3.623       2.463       1.256      3.7232E-03
1
              HEAD IN LAYER   4 AT END OF TIME STEP  63 IN STRESS PERIOD    5
  ---------------------------------------------------------------------------

            1           2           3           4           5           6           7           8           9          10
 ........................................................................................................................
   1    9.997       8.903       7.799       6.696       5.602       4.517       3.429       2.321       1.180      3.5264E-03
   2    9.997       8.888       7.770       6.655       5.554       4.470       3.390       2.294       1.166      3.4845E-03
   3    9.997       8.864       7.724       6.591       5.481       4.398       3.330       2.252       1.144      3.4200E-03
   4    9.997       8.845       7.685       6.536       5.417       4.336       3.278       2.216       1.126      3.3657E-03
   5    9.997       8.840       7.676       6.523       5.401       4.320       3.266       2.208       1.122      3.3542E-03
   6    9.997       8.856       7.707       6.566       5.451       4.369       3.307       2.238       1.138      3.4004E-03
   7    9.997       8.889       7.770       6.654       5.552       4.469       3.392       2.298       1.169      3.4930E-03
   8    9.997       8.927       7.844       6.757       5.670       4.586       3.490       2.368       1.205      3.6022E-03
   9    9.997       8.959       7.908       6.844       5.771       4.684       3.574       2.428       1.237      3.6953E-03
  10    9.997       8.978       7.943       6.893       5.827       4.739       3.621       2.462       1.254      3.7480E-03

 HEAD WILL BE SAVED ON UNIT   51 AT END OF TIME STEP   63, STRESS PERIOD    5

 DRAWDOWN WILL BE SAVED ON UNIT   52 AT END OF TIME STEP   63, STRESS PERIOD    5
1
  VOLUMETRIC BUDGET FOR ENTIRE MODEL AT END OF TIME STEP   63, STRESS PERIOD   5
  ------------------------------------------------------------------------------

     CUMULATIVE VOLUMES      L**3       RATES FOR THIS TIME STEP      L**3/T
     ------------------                 ------------------------

           IN:                                      IN:
           ---                                      ---
             STORAGE =      533244.5625               STORAGE =          51.8075
       CONSTANT HEAD =           0.0000         CONSTANT HEAD =           0.0000
               WELLS =           0.0000                 WELLS =           0.0000
     HEAD DEP BOUNDS =      122690.5078       HEAD DEP BOUNDS =         654.7665

            TOTAL IN =      655935.0625              TOTAL IN =         706.5739

          OUT:                                     OUT:
          ----                                     ----
             STORAGE =       13964.1816               STORAGE =         114.1370
       CONSTANT HEAD =           0.0000         CONSTANT HEAD =           0.0000
               WELLS =      100000.0000                 WELLS =           0.0000
     HEAD DEP BOUNDS =      541972.8125       HEAD DEP BOUNDS =         592.4443

           TOTAL OUT =      655937.0000             TOTAL OUT =         706.5813

            IN - OUT =          -1.9375              IN - OUT =      -7.3853E-03

 PERCENT DISCREPANCY =          -0.00     PERCENT DISCREPANCY =          -0.00






         TIME SUMMARY AT END OF TIME STEP   63 IN STRESS PERIOD    5
                    SECONDS     MINUTES      HOURS       DAYS        YEARS
                    -----------------------------------------------------------
   TIME STEP LENGTH  86400.      1440.0      24.000      1.0000     2.73785E-03
 STRESS PERIOD TIME 5.44320E+06  90720.      1512.0      63.000     0.17248    
         TOTAL TIME 3.14496E+07 5.24160E+05  8736.0      364.00     0.99658    
1
 
 SOLVING FOR HEAD 

 OUTPUT CONTROL FOR STRESS PERIOD    5   TIME STEP   64
    SAVE HEAD FOR ALL LAYERS
    SAVE DRAWDOWN FOR ALL LAYERS
    SAVE BUDGET
    PRINT HEAD FOR ALL LAYERS
    PRINT BUDGET
 UBDSV1 SAVING "         STORAGE" ON UNIT  53 AT TIME STEP 64, STRESS PERIOD   5
 UBDSV2 SAVING "   CONSTANT HEAD" ON UNIT  53 AT TIME STEP 64, STRESS PERIOD   5
 UBDSV1 SAVING "FLOW RIGHT FACE " ON UNIT  53 AT TIME STEP 64, STRESS PERIOD   5
 UBDSV1 SAVING "FLOW FRONT FACE " ON UNIT  53 AT TIME STEP 64, STRESS PERIOD   5
 UBDSV1 SAVING "FLOW LOWER FACE " ON UNIT  53 AT TIME STEP 64, STRESS PERIOD   5
1
              HEAD IN LAYER   1 AT END OF TIME STEP  64 IN STRESS PERIOD    5
  ---------------------------------------------------------------------------

            1           2           3           4           5           6           7           8           9          10
 ........................................................................................................................
   1    9.997       8.906       7.803       6.700       5.606       4.521       3.434       2.327       1.185      1.6319E-03
   2    9.997       8.890       7.772       6.657       5.556       4.473       3.394       2.298       1.170      1.6107E-03
   3    9.997       8.866       7.725       6.590       5.479       4.397       3.331       2.255       1.148      1.5784E-03
   4    9.997       8.846       7.684       6.533       5.413       4.332       3.277       2.217       1.129      1.5511E-03
   5    9.997       8.841       7.674       6.518       5.395       4.316       3.264       2.209       1.125      1.5450E-03
   6    9.997       8.857       7.706       6.562       5.446       4.366       3.306       2.239       1.140      1.5679E-03
   7    9.997       8.890       7.771       6.653       5.551       4.469       3.393       2.300       1.172      1.6141E-03
   8    9.997       8.929       7.847       6.759       5.673       4.589       3.494       2.373       1.210      1.6686E-03
   9    9.997       8.963       7.912       6.849       5.776       4.690       3.580       2.434       1.242      1.7152E-03
  10    9.998       8.981       7.948       6.899       5.833       4.746       3.628       2.468       1.260      1.7414E-03
1
              HEAD IN LAYER   2 AT END OF TIME STEP  64 IN STRESS PERIOD    5
  ---------------------------------------------------------------------------

            1           2           3           4           5           6           7           8           9          10
 ........................................................................................................................
   1    9.997       8.904       7.801       6.698       5.604       4.519       3.431       2.324       1.182      3.2474E-03
   2    9.997       8.889       7.771       6.656       5.556       4.472       3.392       2.296       1.168      3.2083E-03
   3    9.997       8.866       7.725       6.592       5.481       4.399       3.331       2.253       1.146      3.1483E-03
   4    9.997       8.846       7.686       6.537       5.417       4.336       3.279       2.217       1.128      3.0977E-03
   5    9.997       8.841       7.677       6.523       5.401       4.320       3.266       2.209       1.124      3.0868E-03
   6    9.997       8.857       7.708       6.566       5.451       4.369       3.308       2.239       1.139      3.1297E-03
   7    9.997       8.890       7.771       6.654       5.553       4.470       3.393       2.299       1.171      3.2158E-03
   8    9.997       8.928       7.846       6.758       5.672       4.587       3.492       2.370       1.208      3.3173E-03
   9    9.997       8.961       7.909       6.846       5.772       4.686       3.577       2.430       1.239      3.4039E-03
  10    9.997       8.979       7.945       6.895       5.829       4.742       3.624       2.464       1.257      3.4528E-03
1
              HEAD IN LAYER   3 AT END OF TIME STEP  64 IN STRESS PERIOD    5
  ---------------------------------------------------------------------------

            1           2           3           4           5           6           7           8           9          10
 ........................................................................................................................
   1    9.997       8.903       7.800       6.696       5.602       4.516       3.429       2.321       1.180      3.4992E-03
   2    9.997       8.888       7.771       6.656       5.555       4.471       3.390       2.294       1.166      3.4581E-03
   3    9.997       8.865       7.726       6.593       5.483       4.400       3.331       2.252       1.145      3.3949E-03
   4    9.997       8.846       7.688       6.540       5.421       4.339       3.280       2.217       1.127      3.3418E-03
   5    9.997       8.842       7.679       6.527       5.405       4.324       3.268       2.209       1.123      3.3307E-03
   6    9.997       8.858       7.709       6.569       5.454       4.372       3.309       2.239       1.139      3.3762E-03
   7    9.997       8.890       7.772       6.656       5.554       4.471       3.393       2.298       1.169      3.4674E-03
   8    9.997       8.927       7.845       6.757       5.671       4.586       3.490       2.368       1.206      3.5750E-03
   9    9.997       8.960       7.907       6.844       5.770       4.683       3.573       2.427       1.237      3.6667E-03
  10    9.997       8.978       7.943       6.892       5.826       4.738       3.620       2.461       1.254      3.7187E-03
1
              HEAD IN LAYER   4 AT END OF TIME STEP  64 IN STRESS PERIOD    5
  ---------------------------------------------------------------------------

            1           2           3           4           5           6           7           8           9          10
 ........................................................................................................................
   1    9.997       8.903       7.799       6.696       5.601       4.515       3.427       2.320       1.179      3.5232E-03
   2    9.997       8.888       7.770       6.656       5.555       4.470       3.389       2.293       1.165      3.4822E-03
   3    9.997       8.865       7.726       6.594       5.484       4.400       3.331       2.252       1.144      3.4192E-03
   4    9.997       8.846       7.689       6.541       5.422       4.340       3.281       2.217       1.127      3.3664E-03
   5    9.997       8.842       7.680       6.528       5.408       4.326       3.269       2.210       1.123      3.3555E-03
   6    9.997       8.858       7.710       6.570       5.456       4.374       3.310       2.239       1.138      3.4011E-03
   7    9.997       8.889       7.772       6.656       5.555       4.471       3.393       2.298       1.169      3.4922E-03
   8    9.997       8.927       7.845       6.757       5.671       4.585       3.490       2.367       1.205      3.5997E-03
   9    9.997       8.959       7.907       6.843       5.769       4.682       3.572       2.426       1.235      3.6915E-03
  10    9.997       8.977       7.942       6.891       5.824       4.736       3.618       2.459       1.253      3.7435E-03

 HEAD WILL BE SAVED ON UNIT   51 AT END OF TIME STEP   64, STRESS PERIOD    5

 DRAWDOWN WILL BE SAVED ON UNIT   52 AT END OF TIME STEP   64, STRESS PERIOD    5
1
  VOLUMETRIC BUDGET FOR ENTIRE MODEL AT END OF TIME STEP   64, STRESS PERIOD   5
  ------------------------------------------------------------------------------

     CUMULATIVE VOLUMES      L**3       RATES FOR THIS TIME STEP      L**3/T
     ------------------                 ------------------------

           IN:                                      IN:
           ---                                      ---
             STORAGE =      533294.6250               STORAGE =          50.0443
       CONSTANT HEAD =           0.0000         CONSTANT HEAD =           0.0000
               WELLS =           0.0000                 WELLS =           0.0000
     HEAD DEP BOUNDS =      123344.9297       HEAD DEP BOUNDS =         654.4238

            TOTAL IN =      656639.5625              TOTAL IN =         704.4681

          OUT:                                     OUT:
          ----                                     ----
             STORAGE =       14076.4854               STORAGE =         112.3041
       CONSTANT HEAD =           0.0000         CONSTANT HEAD =           0.0000
               WELLS =      100000.0000                 WELLS =           0.0000
     HEAD DEP BOUNDS =      542565.0000       HEAD DEP BOUNDS =         592.1778

           TOTAL OUT =      656641.5000             TOTAL OUT =         704.4819

            IN - OUT =          -1.9375              IN - OUT =      -1.3794E-02

 PERCENT DISCREPANCY =          -0.00     PERCENT DISCREPANCY =          -0.00






         TIME SUMMARY AT END OF TIME STEP   64 IN STRESS PERIOD    5
                    SECONDS     MINUTES      HOURS       DAYS        YEARS
                    -----------------------------------------------------------
   TIME STEP LENGTH  86400.      1440.0      24.000      1.0000     2.73785E-03
 STRESS PERIOD TIME 5.52960E+06  92160.      1536.0      64.000     0.17522    
         TOTAL TIME 3.15360E+07 5.25600E+05  8760.0      365.00     0.99932    
1
 
 SOLVING FOR HEAD 

 OUTPUT CONTROL FOR STRESS PERIOD    5   TIME STEP   65
    SAVE HEAD FOR ALL LAYERS
    SAVE DRAWDOWN FOR ALL LAYERS
    SAVE BUDGET
    PRINT HEAD FOR ALL LAYERS
    PRINT BUDGET
 UBDSV1 SAVING "         STORAGE" ON UNIT  53 AT TIME STEP 65, STRESS PERIOD   5
 UBDSV2 SAVING "   CONSTANT HEAD" ON UNIT  53 AT TIME STEP 65, STRESS PERIOD   5
 UBDSV1 SAVING "FLOW RIGHT FACE " ON UNIT  53 AT TIME STEP 65, STRESS PERIOD   5
 UBDSV1 SAVING "FLOW FRONT FACE " ON UNIT  53 AT TIME STEP 65, STRESS PERIOD   5
 UBDSV1 SAVING "FLOW LOWER FACE " ON UNIT  53 AT TIME STEP 65, STRESS PERIOD   5
1
              HEAD IN LAYER   1 AT END OF TIME STEP  65 IN STRESS PERIOD    5
  ---------------------------------------------------------------------------

            1           2           3           4           5           6           7           8           9          10
 ........................................................................................................................
   1    9.997       8.905       7.802       6.699       5.605       4.520       3.432       2.325       1.183      1.6302E-03
   2    9.997       8.890       7.773       6.658       5.557       4.473       3.393       2.297       1.169      1.6095E-03
   3    9.997       8.867       7.727       6.593       5.482       4.400       3.332       2.255       1.147      1.5779E-03
   4    9.997       8.847       7.687       6.538       5.418       4.337       3.280       2.218       1.129      1.5513E-03
   5    9.997       8.843       7.678       6.524       5.402       4.321       3.267       2.210       1.125      1.5457E-03
   6    9.997       8.859       7.709       6.567       5.452       4.370       3.309       2.240       1.141      1.5682E-03
   7    9.997       8.891       7.772       6.656       5.554       4.471       3.394       2.300       1.172      1.6136E-03
   8    9.997       8.929       7.847       6.759       5.673       4.588       3.494       2.371       1.209      1.6674E-03
   9    9.997       8.962       7.910       6.847       5.774       4.687       3.578       2.432       1.240      1.7133E-03
  10    9.998       8.980       7.946       6.896       5.830       4.743       3.625       2.465       1.258      1.7392E-03
1
              HEAD IN LAYER   2 AT END OF TIME STEP  65 IN STRESS PERIOD    5
  ---------------------------------------------------------------------------

            1           2           3           4           5           6           7           8           9          10
 ........................................................................................................................
   1    9.997       8.904       7.800       6.697       5.603       4.517       3.429       2.322       1.181      3.2444E-03
   2    9.997       8.889       7.772       6.657       5.556       4.472       3.391       2.295       1.167      3.2062E-03
   3    9.997       8.867       7.727       6.595       5.484       4.401       3.332       2.253       1.146      3.1475E-03
   4    9.997       8.848       7.690       6.541       5.423       4.340       3.281       2.218       1.128      3.0983E-03
   5    9.997       8.843       7.681       6.529       5.407       4.326       3.270       2.211       1.124      3.0880E-03
   6    9.997       8.859       7.711       6.571       5.456       4.374       3.311       2.240       1.140      3.1304E-03
   7    9.997       8.891       7.773       6.657       5.556       4.472       3.394       2.299       1.170      3.2151E-03
   8    9.997       8.928       7.846       6.758       5.672       4.587       3.491       2.369       1.207      3.3150E-03
   9    9.997       8.960       7.908       6.844       5.771       4.684       3.574       2.428       1.238      3.4003E-03
  10    9.997       8.978       7.943       6.893       5.826       4.739       3.621       2.462       1.255      3.4486E-03
1
              HEAD IN LAYER   3 AT END OF TIME STEP  65 IN STRESS PERIOD    5
  ---------------------------------------------------------------------------

            1           2           3           4           5           6           7           8           9          10
 ........................................................................................................................
   1    9.997       8.903       7.799       6.696       5.601       4.515       3.427       2.319       1.179      3.4961E-03
   2    9.997       8.889       7.771       6.657       5.556       4.471       3.390       2.293       1.165      3.4559E-03
   3    9.997       8.866       7.728       6.596       5.486       4.402       3.332       2.252       1.145      3.3942E-03
   4    9.997       8.848       7.691       6.544       5.426       4.343       3.283       2.218       1.127      3.3426E-03
   5    9.997       8.844       7.683       6.532       5.412       4.329       3.272       2.211       1.124      3.3320E-03
   6    9.997       8.859       7.713       6.574       5.460       4.377       3.312       2.240       1.139      3.3770E-03
   7    9.997       8.890       7.774       6.658       5.557       4.473       3.394       2.298       1.169      3.4667E-03
   8    9.997       8.927       7.845       6.758       5.671       4.586       3.490       2.367       1.205      3.5726E-03
   9    9.997       8.959       7.906       6.842       5.768       4.681       3.571       2.425       1.235      3.6630E-03
  10    9.997       8.977       7.941       6.890       5.823       4.735       3.617       2.458       1.253      3.7142E-03
1
              HEAD IN LAYER   4 AT END OF TIME STEP  65 IN STRESS PERIOD    5
  ---------------------------------------------------------------------------

            1           2           3           4           5           6           7           8           9          10
 ........................................................................................................................
   1    9.997       8.902       7.799       6.695       5.600       4.514       3.426       2.318       1.178      3.5201E-03
   2    9.997       8.888       7.771       6.657       5.556       4.470       3.389       2.292       1.165      3.4800E-03
   3    9.997       8.866       7.728       6.597       5.487       4.402       3.332       2.252       1.144      3.4185E-03
   4    9.997       8.848       7.692       6.546       5.428       4.345       3.283       2.218       1.127      3.3672E-03
   5    9.997       8.844       7.684       6.534       5.414       4.331       3.273       2.211       1.123      3.3569E-03
   6    9.997       8.859       7.713       6.575       5.461       4.378       3.313       2.240       1.138      3.4019E-03
   7    9.997       8.890       7.774       6.659       5.558       4.473       3.394       2.298       1.168      3.4915E-03
   8    9.997       8.927       7.845       6.758       5.671       4.585       3.489       2.366       1.204      3.5973E-03
   9    9.997       8.958       7.906       6.841       5.767       4.680       3.569       2.424       1.234      3.6878E-03
  10    9.997       8.976       7.940       6.888       5.821       4.733       3.615       2.456       1.251      3.7390E-03

 HEAD WILL BE SAVED ON UNIT   51 AT END OF TIME STEP   65, STRESS PERIOD    5

 DRAWDOWN WILL BE SAVED ON UNIT   52 AT END OF TIME STEP   65, STRESS PERIOD    5
1
  VOLUMETRIC BUDGET FOR ENTIRE MODEL AT END OF TIME STEP   65, STRESS PERIOD   5
  ------------------------------------------------------------------------------

     CUMULATIVE VOLUMES      L**3       RATES FOR THIS TIME STEP      L**3/T
     ------------------                 ------------------------

           IN:                                      IN:
           ---                                      ---
             STORAGE =      533343.0625               STORAGE =          48.4113
       CONSTANT HEAD =           0.0000         CONSTANT HEAD =           0.0000
               WELLS =           0.0000                 WELLS =           0.0000
     HEAD DEP BOUNDS =      123999.0312       HEAD DEP BOUNDS =         654.1001

            TOTAL IN =      657342.1250              TOTAL IN =         702.5114

          OUT:                                     OUT:
          ----                                     ----
             STORAGE =       14187.0771               STORAGE =         110.5919
       CONSTANT HEAD =           0.0000         CONSTANT HEAD =           0.0000
               WELLS =      100000.0000                 WELLS =           0.0000
     HEAD DEP BOUNDS =      543156.9375       HEAD DEP BOUNDS =         591.9235

           TOTAL OUT =      657344.0000             TOTAL OUT =         702.5154

            IN - OUT =          -1.8750              IN - OUT =      -4.0894E-03

 PERCENT DISCREPANCY =          -0.00     PERCENT DISCREPANCY =          -0.00






         TIME SUMMARY AT END OF TIME STEP   65 IN STRESS PERIOD    5
                    SECONDS     MINUTES      HOURS       DAYS        YEARS
                    -----------------------------------------------------------
   TIME STEP LENGTH  86400.      1440.0      24.000      1.0000     2.73785E-03
 STRESS PERIOD TIME 5.61600E+06  93600.      1560.0      65.000     0.17796    
         TOTAL TIME 3.16224E+07 5.27040E+05  8784.0      366.00      1.0021    
1
 
 SOLVING FOR HEAD 

 OUTPUT CONTROL FOR STRESS PERIOD    5   TIME STEP   66
    SAVE HEAD FOR ALL LAYERS
    SAVE DRAWDOWN FOR ALL LAYERS
    SAVE BUDGET
    PRINT HEAD FOR ALL LAYERS
    PRINT BUDGET
 UBDSV1 SAVING "         STORAGE" ON UNIT  53 AT TIME STEP 66, STRESS PERIOD   5
 UBDSV2 SAVING "   CONSTANT HEAD" ON UNIT  53 AT TIME STEP 66, STRESS PERIOD   5
 UBDSV1 SAVING "FLOW RIGHT FACE " ON UNIT  53 AT TIME STEP 66, STRESS PERIOD   5
 UBDSV1 SAVING "FLOW FRONT FACE " ON UNIT  53 AT TIME STEP 66, STRESS PERIOD   5
 UBDSV1 SAVING "FLOW LOWER FACE " ON UNIT  53 AT TIME STEP 66, STRESS PERIOD   5
1
              HEAD IN LAYER   1 AT END OF TIME STEP  66 IN STRESS PERIOD    5
  ---------------------------------------------------------------------------

            1           2           3           4           5           6           7           8           9          10
 ........................................................................................................................
   1    9.997       8.905       7.802       6.699       5.604       4.518       3.431       2.323       1.182      1.6286E-03
   2    9.997       8.891       7.773       6.658       5.558       4.473       3.392       2.296       1.168      1.6084E-03
   3    9.997       8.868       7.729       6.596       5.486       4.402       3.333       2.255       1.147      1.5776E-03
   4    9.997       8.849       7.691       6.543       5.424       4.341       3.283       2.220       1.129      1.5518E-03
   5    9.997       8.845       7.682       6.530       5.408       4.327       3.271       2.212       1.126      1.5464E-03
   6    9.997       8.860       7.712       6.572       5.457       4.375       3.312       2.241       1.141      1.5685E-03
   7    9.997       8.892       7.774       6.658       5.557       4.473       3.395       2.300       1.172      1.6132E-03
   8    9.997       8.929       7.847       6.760       5.673       4.588       3.493       2.370       1.208      1.6661E-03
   9    9.997       8.961       7.909       6.846       5.772       4.685       3.575       2.429       1.239      1.7114E-03
  10    9.998       8.980       7.944       6.894       5.827       4.740       3.622       2.463       1.256      1.7370E-03
1
              HEAD IN LAYER   2 AT END OF TIME STEP  66 IN STRESS PERIOD    5
  ---------------------------------------------------------------------------

            1           2           3           4           5           6           7           8           9          10
 ........................................................................................................................
   1    9.997       8.904       7.800       6.697       5.602       4.516       3.428       2.320       1.180      3.2414E-03
   2    9.997       8.890       7.772       6.658       5.557       4.472       3.390       2.294       1.167      3.2041E-03
   3    9.997       8.868       7.729       6.598       5.487       4.403       3.333       2.254       1.146      3.1469E-03
   4    9.997       8.849       7.693       6.546       5.428       4.345       3.284       2.219       1.128      3.0990E-03
   5    9.997       8.845       7.685       6.534       5.414       4.331       3.273       2.212       1.125      3.0893E-03
   6    9.997       8.861       7.714       6.576       5.461       4.378       3.313       2.241       1.140      3.1311E-03
   7    9.997       8.892       7.775       6.660       5.558       4.474       3.395       2.299       1.170      3.2144E-03
   8    9.997       8.928       7.846       6.759       5.672       4.587       3.491       2.368       1.206      3.3128E-03
   9    9.997       8.960       7.907       6.843       5.769       4.682       3.572       2.426       1.236      3.3969E-03
  10    9.997       8.977       7.941       6.890       5.823       4.735       3.618       2.459       1.254      3.4445E-03
1
              HEAD IN LAYER   3 AT END OF TIME STEP  66 IN STRESS PERIOD    5
  ---------------------------------------------------------------------------

            1           2           3           4           5           6           7           8           9          10
 ........................................................................................................................
   1    9.997       8.903       7.799       6.696       5.601       4.514       3.425       2.318       1.178      3.4930E-03
   2    9.997       8.889       7.772       6.658       5.557       4.471       3.389       2.292       1.165      3.4537E-03
   3    9.997       8.867       7.730       6.599       5.489       4.404       3.333       2.253       1.144      3.3936E-03
   4    9.997       8.849       7.694       6.549       5.431       4.348       3.285       2.219       1.128      3.3433E-03
   5    9.997       8.846       7.686       6.538       5.418       4.335       3.275       2.213       1.124      3.3335E-03
   6    9.997       8.861       7.716       6.578       5.465       4.381       3.315       2.241       1.139      3.3778E-03
   7    9.997       8.891       7.775       6.661       5.560       4.475       3.395       2.298       1.169      3.4660E-03
   8    9.997       8.928       7.846       6.758       5.672       4.585       3.489       2.366       1.204      3.5702E-03
   9    9.997       8.959       7.905       6.841       5.767       4.679       3.569       2.423       1.234      3.6593E-03
  10    9.997       8.976       7.939       6.888       5.820       4.732       3.614       2.456       1.251      3.7099E-03
1
              HEAD IN LAYER   4 AT END OF TIME STEP  66 IN STRESS PERIOD    5
  ---------------------------------------------------------------------------

            1           2           3           4           5           6           7           8           9          10
 ........................................................................................................................
   1    9.997       8.902       7.798       6.695       5.600       4.513       3.424       2.317       1.177      3.5170E-03
   2    9.997       8.888       7.771       6.657       5.556       4.470       3.388       2.291       1.164      3.4778E-03
   3    9.997       8.867       7.730       6.599       5.490       4.405       3.333       2.252       1.144      3.4179E-03
   4    9.997       8.850       7.695       6.550       5.433       4.349       3.286       2.219       1.127      3.3680E-03
   5    9.997       8.846       7.687       6.539       5.420       4.336       3.276       2.213       1.124      3.3583E-03
   6    9.997       8.861       7.717       6.580       5.466       4.382       3.315       2.241       1.139      3.4027E-03
   7    9.997       8.891       7.776       6.662       5.560       4.475       3.395       2.298       1.168      3.4909E-03
   8    9.997       8.927       7.845       6.758       5.671       4.585       3.488       2.365       1.203      3.5950E-03
   9    9.997       8.958       7.905       6.840       5.765       4.678       3.567       2.422       1.233      3.6841E-03
  10    9.997       8.975       7.938       6.886       5.818       4.730       3.612       2.454       1.250      3.7347E-03

 HEAD WILL BE SAVED ON UNIT   51 AT END OF TIME STEP   66, STRESS PERIOD    5

 DRAWDOWN WILL BE SAVED ON UNIT   52 AT END OF TIME STEP   66, STRESS PERIOD    5
1
  VOLUMETRIC BUDGET FOR ENTIRE MODEL AT END OF TIME STEP   66, STRESS PERIOD   5
  ------------------------------------------------------------------------------

     CUMULATIVE VOLUMES      L**3       RATES FOR THIS TIME STEP      L**3/T
     ------------------                 ------------------------

           IN:                                      IN:
           ---                                      ---
             STORAGE =      533389.8750               STORAGE =          46.8223
       CONSTANT HEAD =           0.0000         CONSTANT HEAD =           0.0000
               WELLS =           0.0000                 WELLS =           0.0000
     HEAD DEP BOUNDS =      124652.7969       HEAD DEP BOUNDS =         653.7659

            TOTAL IN =      658042.6875              TOTAL IN =         700.5881

          OUT:                                     OUT:
          ----                                     ----
             STORAGE =       14295.9805               STORAGE =         108.9036
       CONSTANT HEAD =           0.0000         CONSTANT HEAD =           0.0000
               WELLS =      100000.0000                 WELLS =           0.0000
     HEAD DEP BOUNDS =      543748.6250       HEAD DEP BOUNDS =         591.6827

           TOTAL OUT =      658044.6250             TOTAL OUT =         700.5863

            IN - OUT =          -1.9375              IN - OUT =       1.8311E-03

 PERCENT DISCREPANCY =          -0.00     PERCENT DISCREPANCY =           0.00






         TIME SUMMARY AT END OF TIME STEP   66 IN STRESS PERIOD    5
                    SECONDS     MINUTES      HOURS       DAYS        YEARS
                    -----------------------------------------------------------
   TIME STEP LENGTH  86400.      1440.0      24.000      1.0000     2.73785E-03
 STRESS PERIOD TIME 5.70240E+06  95040.      1584.0      66.000     0.18070    
         TOTAL TIME 3.17088E+07 5.28480E+05  8808.0      367.00      1.0048    
1
 
 SOLVING FOR HEAD 

 OUTPUT CONTROL FOR STRESS PERIOD    5   TIME STEP   67
    SAVE HEAD FOR ALL LAYERS
    SAVE DRAWDOWN FOR ALL LAYERS
    SAVE BUDGET
    PRINT HEAD FOR ALL LAYERS
    PRINT BUDGET
 UBDSV1 SAVING "         STORAGE" ON UNIT  53 AT TIME STEP 67, STRESS PERIOD   5
 UBDSV2 SAVING "   CONSTANT HEAD" ON UNIT  53 AT TIME STEP 67, STRESS PERIOD   5
 UBDSV1 SAVING "FLOW RIGHT FACE " ON UNIT  53 AT TIME STEP 67, STRESS PERIOD   5
 UBDSV1 SAVING "FLOW FRONT FACE " ON UNIT  53 AT TIME STEP 67, STRESS PERIOD   5
 UBDSV1 SAVING "FLOW LOWER FACE " ON UNIT  53 AT TIME STEP 67, STRESS PERIOD   5
1
              HEAD IN LAYER   1 AT END OF TIME STEP  67 IN STRESS PERIOD    5
  ---------------------------------------------------------------------------

            1           2           3           4           5           6           7           8           9          10
 ........................................................................................................................
   1    9.997       8.905       7.802       6.698       5.603       4.517       3.429       2.321       1.181      1.6271E-03
   2    9.997       8.891       7.774       6.659       5.558       4.473       3.392       2.295       1.168      1.6074E-03
   3    9.997       8.869       7.731       6.599       5.489       4.404       3.334       2.255       1.147      1.5772E-03
   4    9.997       8.850       7.694       6.547       5.429       4.346       3.285       2.221       1.130      1.5521E-03
   5    9.997       8.846       7.686       6.535       5.415       4.332       3.274       2.213       1.126      1.5471E-03
   6    9.997       8.862       7.716       6.577       5.462       4.379       3.315       2.242       1.141      1.5690E-03
   7    9.997       8.893       7.776       6.661       5.560       4.475       3.396       2.301       1.171      1.6130E-03
   8    9.997       8.930       7.848       6.760       5.674       4.588       3.492       2.369       1.207      1.6649E-03
   9    9.997       8.961       7.908       6.844       5.770       4.683       3.573       2.427       1.238      1.7096E-03
  10    9.998       8.979       7.943       6.892       5.825       4.737       3.619       2.460       1.255      1.7347E-03
1
              HEAD IN LAYER   2 AT END OF TIME STEP  67 IN STRESS PERIOD    5
  ---------------------------------------------------------------------------

            1           2           3           4           5           6           7           8           9          10
 ........................................................................................................................
   1    9.997       8.904       7.800       6.697       5.602       4.515       3.426       2.319       1.179      3.2386E-03
   2    9.997       8.890       7.773       6.659       5.558       4.472       3.390       2.293       1.166      3.2021E-03
   3    9.997       8.869       7.731       6.600       5.490       4.406       3.334       2.254       1.146      3.1463E-03
   4    9.997       8.851       7.696       6.551       5.433       4.349       3.287       2.221       1.129      3.0998E-03
   5    9.997       8.847       7.688       6.540       5.420       4.336       3.277       2.214       1.125      3.0906E-03
   6    9.997       8.862       7.718       6.580       5.467       4.383       3.316       2.242       1.140      3.1319E-03
   7    9.997       8.892       7.777       6.662       5.561       4.476       3.396       2.299       1.170      3.2138E-03
   8    9.997       8.928       7.847       6.759       5.673       4.586       3.490       2.367       1.205      3.3106E-03
   9    9.997       8.959       7.906       6.842       5.767       4.680       3.570       2.424       1.235      3.3935E-03
  10    9.997       8.977       7.940       6.888       5.820       4.732       3.615       2.456       1.252      3.4404E-03
1
              HEAD IN LAYER   3 AT END OF TIME STEP  67 IN STRESS PERIOD    5
  ---------------------------------------------------------------------------

            1           2           3           4           5           6           7           8           9          10
 ........................................................................................................................
   1    9.997       8.903       7.799       6.695       5.600       4.513       3.424       2.316       1.177      3.4901E-03
   2    9.997       8.889       7.772       6.658       5.557       4.471       3.388       2.291       1.164      3.4517E-03
   3    9.997       8.868       7.732       6.602       5.492       4.406       3.334       2.253       1.144      3.3930E-03
   4    9.997       8.851       7.698       6.554       5.436       4.352       3.288       2.221       1.128      3.3442E-03
   5    9.997       8.847       7.690       6.543       5.424       4.340       3.278       2.214       1.125      3.3349E-03
   6    9.997       8.862       7.719       6.583       5.470       4.385       3.317       2.242       1.139      3.3787E-03
   7    9.997       8.892       7.777       6.664       5.563       4.477       3.396       2.298       1.169      3.4654E-03
   8    9.997       8.928       7.846       6.759       5.672       4.585       3.488       2.365       1.203      3.5680E-03
   9    9.997       8.958       7.905       6.840       5.765       4.677       3.567       2.421       1.233      3.6558E-03
  10    9.997       8.975       7.938       6.885       5.817       4.729       3.611       2.453       1.250      3.7056E-03
1
              HEAD IN LAYER   4 AT END OF TIME STEP  67 IN STRESS PERIOD    5
  ---------------------------------------------------------------------------

            1           2           3           4           5           6           7           8           9          10
 ........................................................................................................................
   1    9.997       8.902       7.798       6.695       5.599       4.512       3.423       2.315       1.176      3.5141E-03
   2    9.997       8.889       7.772       6.658       5.557       4.471       3.388       2.290       1.163      3.4758E-03
   3    9.997       8.868       7.732       6.602       5.492       4.407       3.334       2.252       1.144      3.4174E-03
   4    9.997       8.851       7.698       6.555       5.438       4.353       3.289       2.221       1.127      3.3689E-03
   5    9.997       8.848       7.691       6.545       5.426       4.341       3.279       2.214       1.124      3.3598E-03
   6    9.997       8.862       7.720       6.584       5.471       4.387       3.318       2.242       1.139      3.4036E-03
   7    9.997       8.892       7.777       6.664       5.563       4.478       3.396       2.298       1.168      3.4903E-03
   8    9.997       8.927       7.846       6.758       5.672       4.585       3.487       2.364       1.202      3.5928E-03
   9    9.997       8.957       7.904       6.839       5.764       4.676       3.565       2.420       1.232      3.6806E-03
  10    9.997       8.975       7.937       6.884       5.816       4.727       3.609       2.451       1.248      3.7304E-03

 HEAD WILL BE SAVED ON UNIT   51 AT END OF TIME STEP   67, STRESS PERIOD    5

 DRAWDOWN WILL BE SAVED ON UNIT   52 AT END OF TIME STEP   67, STRESS PERIOD    5
1
  VOLUMETRIC BUDGET FOR ENTIRE MODEL AT END OF TIME STEP   67, STRESS PERIOD   5
  ------------------------------------------------------------------------------

     CUMULATIVE VOLUMES      L**3       RATES FOR THIS TIME STEP      L**3/T
     ------------------                 ------------------------

           IN:                                      IN:
           ---                                      ---
             STORAGE =      533435.1250               STORAGE =          45.2777
       CONSTANT HEAD =           0.0000         CONSTANT HEAD =           0.0000
               WELLS =           0.0000                 WELLS =           0.0000
     HEAD DEP BOUNDS =      125306.2266       HEAD DEP BOUNDS =         653.4270

            TOTAL IN =      658741.3750              TOTAL IN =         698.7047

          OUT:                                     OUT:
          ----                                     ----
             STORAGE =       14403.2344               STORAGE =         107.2536
       CONSTANT HEAD =           0.0000         CONSTANT HEAD =           0.0000
               WELLS =      100000.0000                 WELLS =           0.0000
     HEAD DEP BOUNDS =      544340.0625       HEAD DEP BOUNDS =         591.4533

           TOTAL OUT =      658743.3125             TOTAL OUT =         698.7069

            IN - OUT =          -1.9375              IN - OUT =      -2.1973E-03

 PERCENT DISCREPANCY =          -0.00     PERCENT DISCREPANCY =          -0.00






         TIME SUMMARY AT END OF TIME STEP   67 IN STRESS PERIOD    5
                    SECONDS     MINUTES      HOURS       DAYS        YEARS
                    -----------------------------------------------------------
   TIME STEP LENGTH  86400.      1440.0      24.000      1.0000     2.73785E-03
 STRESS PERIOD TIME 5.78880E+06  96480.      1608.0      67.000     0.18344    
         TOTAL TIME 3.17952E+07 5.29920E+05  8832.0      368.00      1.0075    
1
 
 SOLVING FOR HEAD 

 OUTPUT CONTROL FOR STRESS PERIOD    5   TIME STEP   68
    SAVE HEAD FOR ALL LAYERS
    SAVE DRAWDOWN FOR ALL LAYERS
    SAVE BUDGET
    PRINT HEAD FOR ALL LAYERS
    PRINT BUDGET
 UBDSV1 SAVING "         STORAGE" ON UNIT  53 AT TIME STEP 68, STRESS PERIOD   5
 UBDSV2 SAVING "   CONSTANT HEAD" ON UNIT  53 AT TIME STEP 68, STRESS PERIOD   5
 UBDSV1 SAVING "FLOW RIGHT FACE " ON UNIT  53 AT TIME STEP 68, STRESS PERIOD   5
 UBDSV1 SAVING "FLOW FRONT FACE " ON UNIT  53 AT TIME STEP 68, STRESS PERIOD   5
 UBDSV1 SAVING "FLOW LOWER FACE " ON UNIT  53 AT TIME STEP 68, STRESS PERIOD   5
1
              HEAD IN LAYER   1 AT END OF TIME STEP  68 IN STRESS PERIOD    5
  ---------------------------------------------------------------------------

            1           2           3           4           5           6           7           8           9          10
 ........................................................................................................................
   1    9.997       8.905       7.801       6.698       5.603       4.516       3.427       2.320       1.180      1.6256E-03
   2    9.997       8.891       7.774       6.660       5.559       4.473       3.391       2.294       1.167      1.6064E-03
   3    9.997       8.870       7.732       6.602       5.492       4.407       3.335       2.255       1.147      1.5769E-03
   4    9.997       8.852       7.697       6.552       5.434       4.350       3.288       2.222       1.130      1.5526E-03
   5    9.997       8.848       7.689       6.541       5.421       4.337       3.278       2.215       1.126      1.5477E-03
   6    9.997       8.863       7.719       6.581       5.468       4.384       3.317       2.244       1.141      1.5693E-03
   7    9.997       8.894       7.778       6.664       5.562       4.477       3.397       2.301       1.171      1.6125E-03
   8    9.997       8.930       7.848       6.761       5.674       4.588       3.491       2.368       1.206      1.6638E-03
   9    9.997       8.960       7.907       6.843       5.769       4.681       3.571       2.425       1.236      1.7078E-03
  10    9.998       8.978       7.941       6.889       5.822       4.734       3.616       2.458       1.254      1.7326E-03
1
              HEAD IN LAYER   2 AT END OF TIME STEP  68 IN STRESS PERIOD    5
  ---------------------------------------------------------------------------

            1           2           3           4           5           6           7           8           9          10
 ........................................................................................................................
   1    9.997       8.904       7.800       6.696       5.601       4.514       3.425       2.317       1.178      3.2359E-03
   2    9.997       8.890       7.773       6.660       5.559       4.472       3.389       2.292       1.165      3.2002E-03
   3    9.997       8.870       7.733       6.603       5.493       4.408       3.335       2.254       1.145      3.1458E-03
   4    9.997       8.852       7.699       6.555       5.438       4.353       3.290       2.222       1.129      3.1006E-03
   5    9.997       8.849       7.692       6.545       5.426       4.341       3.280       2.215       1.126      3.0920E-03
   6    9.997       8.864       7.721       6.585       5.472       4.387       3.319       2.244       1.141      3.1326E-03
   7    9.997       8.893       7.779       6.665       5.564       4.478       3.397       2.300       1.170      3.2132E-03
   8    9.997       8.929       7.847       6.760       5.673       4.586       3.489       2.366       1.204      3.3085E-03
   9    9.997       8.959       7.905       6.840       5.766       4.678       3.567       2.422       1.234      3.3902E-03
  10    9.997       8.976       7.938       6.886       5.818       4.729       3.612       2.454       1.251      3.4365E-03
1
              HEAD IN LAYER   3 AT END OF TIME STEP  68 IN STRESS PERIOD    5
  ---------------------------------------------------------------------------

            1           2           3           4           5           6           7           8           9          10
 ........................................................................................................................
   1    9.997       8.903       7.799       6.695       5.599       4.512       3.422       2.315       1.176      3.4872E-03
   2    9.997       8.889       7.773       6.659       5.558       4.471       3.388       2.290       1.163      3.4497E-03
   3    9.997       8.869       7.734       6.604       5.495       4.409       3.335       2.253       1.144      3.3925E-03
   4    9.997       8.853       7.701       6.558       5.441       4.356       3.291       2.222       1.128      3.3451E-03
   5    9.997       8.849       7.694       6.548       5.429       4.345       3.282       2.216       1.125      3.3363E-03
   6    9.997       8.864       7.722       6.587       5.475       4.389       3.320       2.243       1.140      3.3796E-03
   7    9.997       8.893       7.779       6.666       5.565       4.479       3.397       2.299       1.168      3.4649E-03
   8    9.997       8.928       7.846       6.759       5.672       4.585       3.487       2.364       1.202      3.5658E-03
   9    9.997       8.958       7.904       6.838       5.763       4.675       3.564       2.419       1.232      3.6523E-03
  10    9.997       8.974       7.936       6.883       5.815       4.726       3.608       2.451       1.248      3.7014E-03
1
              HEAD IN LAYER   4 AT END OF TIME STEP  68 IN STRESS PERIOD    5
  ---------------------------------------------------------------------------

            1           2           3           4           5           6           7           8           9          10
 ........................................................................................................................
   1    9.997       8.902       7.798       6.694       5.599       4.511       3.421       2.314       1.175      3.5113E-03
   2    9.997       8.889       7.773       6.659       5.558       4.471       3.387       2.289       1.163      3.4739E-03
   3    9.997       8.869       7.734       6.605       5.495       4.409       3.335       2.252       1.143      3.4169E-03
   4    9.997       8.853       7.701       6.559       5.443       4.357       3.291       2.222       1.128      3.3698E-03
   5    9.997       8.849       7.695       6.550       5.431       4.346       3.283       2.216       1.125      3.3613E-03
   6    9.997       8.864       7.723       6.589       5.476       4.391       3.321       2.243       1.139      3.4045E-03
   7    9.997       8.893       7.779       6.667       5.566       4.480       3.397       2.298       1.168      3.4898E-03
   8    9.997       8.927       7.846       6.759       5.672       4.584       3.486       2.363       1.202      3.5906E-03
   9    9.997       8.957       7.903       6.837       5.762       4.674       3.563       2.418       1.231      3.6771E-03
  10    9.997       8.974       7.935       6.882       5.813       4.724       3.606       2.449       1.247      3.7263E-03

 HEAD WILL BE SAVED ON UNIT   51 AT END OF TIME STEP   68, STRESS PERIOD    5

 DRAWDOWN WILL BE SAVED ON UNIT   52 AT END OF TIME STEP   68, STRESS PERIOD    5
1
  VOLUMETRIC BUDGET FOR ENTIRE MODEL AT END OF TIME STEP   68, STRESS PERIOD   5
  ------------------------------------------------------------------------------

     CUMULATIVE VOLUMES      L**3       RATES FOR THIS TIME STEP      L**3/T
     ------------------                 ------------------------

           IN:                                      IN:
           ---                                      ---
             STORAGE =      533478.8750               STORAGE =          43.7617
       CONSTANT HEAD =           0.0000         CONSTANT HEAD =           0.0000
               WELLS =           0.0000                 WELLS =           0.0000
     HEAD DEP BOUNDS =      125959.3203       HEAD DEP BOUNDS =         653.0946

            TOTAL IN =      659438.1875              TOTAL IN =         696.8563

          OUT:                                     OUT:
          ----                                     ----
             STORAGE =       14508.8496               STORAGE =         105.6153
       CONSTANT HEAD =           0.0000         CONSTANT HEAD =           0.0000
               WELLS =      100000.0000                 WELLS =           0.0000
     HEAD DEP BOUNDS =      544931.3125       HEAD DEP BOUNDS =         591.2343

           TOTAL OUT =      659440.1875             TOTAL OUT =         696.8495

            IN - OUT =          -2.0000              IN - OUT =       6.7749E-03

 PERCENT DISCREPANCY =          -0.00     PERCENT DISCREPANCY =           0.00






         TIME SUMMARY AT END OF TIME STEP   68 IN STRESS PERIOD    5
                    SECONDS     MINUTES      HOURS       DAYS        YEARS
                    -----------------------------------------------------------
   TIME STEP LENGTH  86400.      1440.0      24.000      1.0000     2.73785E-03
 STRESS PERIOD TIME 5.87520E+06  97920.      1632.0      68.000     0.18617    
         TOTAL TIME 3.18816E+07 5.31360E+05  8856.0      369.00      1.0103    
1
 
 SOLVING FOR HEAD 

 OUTPUT CONTROL FOR STRESS PERIOD    5   TIME STEP   69
    SAVE HEAD FOR ALL LAYERS
    SAVE DRAWDOWN FOR ALL LAYERS
    SAVE BUDGET
    PRINT HEAD FOR ALL LAYERS
    PRINT BUDGET
 UBDSV1 SAVING "         STORAGE" ON UNIT  53 AT TIME STEP 69, STRESS PERIOD   5
 UBDSV2 SAVING "   CONSTANT HEAD" ON UNIT  53 AT TIME STEP 69, STRESS PERIOD   5
 UBDSV1 SAVING "FLOW RIGHT FACE " ON UNIT  53 AT TIME STEP 69, STRESS PERIOD   5
 UBDSV1 SAVING "FLOW FRONT FACE " ON UNIT  53 AT TIME STEP 69, STRESS PERIOD   5
 UBDSV1 SAVING "FLOW LOWER FACE " ON UNIT  53 AT TIME STEP 69, STRESS PERIOD   5
1
              HEAD IN LAYER   1 AT END OF TIME STEP  69 IN STRESS PERIOD    5
  ---------------------------------------------------------------------------

            1           2           3           4           5           6           7           8           9          10
 ........................................................................................................................
   1    9.997       8.905       7.801       6.698       5.602       4.515       3.426       2.318       1.179      1.6242E-03
   2    9.997       8.891       7.775       6.661       5.560       4.473       3.391       2.293       1.166      1.6054E-03
   3    9.997       8.871       7.734       6.604       5.494       4.409       3.336       2.255       1.147      1.5767E-03
   4    9.997       8.854       7.700       6.556       5.439       4.354       3.291       2.223       1.130      1.5530E-03
   5    9.997       8.850       7.693       6.546       5.427       4.342       3.281       2.217       1.127      1.5485E-03
   6    9.997       8.865       7.722       6.586       5.473       4.388       3.320       2.245       1.142      1.5699E-03
   7    9.997       8.895       7.780       6.666       5.565       4.480       3.398       2.301       1.171      1.6123E-03
   8    9.997       8.930       7.848       6.761       5.674       4.587       3.490       2.367       1.206      1.6627E-03
   9    9.997       8.960       7.907       6.842       5.767       4.679       3.569       2.423       1.235      1.7060E-03
  10    9.998       8.977       7.940       6.887       5.819       4.731       3.613       2.455       1.252      1.7305E-03
1
              HEAD IN LAYER   2 AT END OF TIME STEP  69 IN STRESS PERIOD    5
  ---------------------------------------------------------------------------

            1           2           3           4           5           6           7           8           9          10
 ........................................................................................................................
   1    9.997       8.903       7.800       6.696       5.600       4.513       3.423       2.316       1.177      3.2332E-03
   2    9.997       8.890       7.774       6.660       5.559       4.472       3.389       2.291       1.164      3.1984E-03
   3    9.997       8.870       7.735       6.606       5.496       4.410       3.336       2.254       1.145      3.1453E-03
   4    9.997       8.854       7.702       6.560       5.443       4.358       3.292       2.223       1.129      3.1014E-03
   5    9.997       8.851       7.696       6.550       5.431       4.346       3.283       2.217       1.126      3.0933E-03
   6    9.997       8.865       7.724       6.589       5.476       4.391       3.321       2.245       1.141      3.1335E-03
   7    9.997       8.894       7.780       6.668       5.567       4.481       3.398       2.300       1.170      3.2128E-03
   8    9.997       8.929       7.847       6.760       5.673       4.586       3.488       2.365       1.204      3.3065E-03
   9    9.997       8.958       7.904       6.839       5.764       4.676       3.565       2.420       1.233      3.3869E-03
  10    9.997       8.975       7.937       6.884       5.815       4.726       3.609       2.452       1.249      3.4326E-03
1
              HEAD IN LAYER   3 AT END OF TIME STEP  69 IN STRESS PERIOD    5
  ---------------------------------------------------------------------------

            1           2           3           4           5           6           7           8           9          10
 ........................................................................................................................
   1    9.997       8.902       7.798       6.695       5.599       4.511       3.421       2.313       1.175      3.4845E-03
   2    9.997       8.890       7.774       6.660       5.559       4.472       3.388       2.290       1.163      3.4478E-03
   3    9.997       8.870       7.736       6.607       5.497       4.411       3.336       2.253       1.144      3.3920E-03
   4    9.997       8.854       7.704       6.562       5.446       4.360       3.293       2.223       1.128      3.3460E-03
   5    9.997       8.851       7.697       6.553       5.435       4.350       3.285       2.217       1.126      3.3378E-03
   6    9.997       8.865       7.725       6.592       5.479       4.393       3.323       2.245       1.140      3.3805E-03
   7    9.997       8.894       7.781       6.669       5.568       4.481       3.398       2.299       1.168      3.4644E-03
   8    9.997       8.928       7.847       6.760       5.673       4.585       3.486       2.363       1.202      3.5637E-03
   9    9.997       8.957       7.903       6.837       5.762       4.673       3.562       2.417       1.231      3.6489E-03
  10    9.997       8.974       7.935       6.881       5.812       4.723       3.605       2.448       1.247      3.6973E-03
1
              HEAD IN LAYER   4 AT END OF TIME STEP  69 IN STRESS PERIOD    5
  ---------------------------------------------------------------------------

            1           2           3           4           5           6           7           8           9          10
 ........................................................................................................................
   1    9.997       8.902       7.798       6.694       5.598       4.510       3.420       2.312       1.174      3.5085E-03
   2    9.997       8.889       7.773       6.660       5.559       4.471       3.387       2.289       1.162      3.4720E-03
   3    9.997       8.870       7.736       6.607       5.498       4.411       3.336       2.253       1.143      3.4165E-03
   4    9.997       8.854       7.704       6.564       5.447       4.361       3.294       2.223       1.128      3.3707E-03
   5    9.997       8.851       7.698       6.555       5.437       4.351       3.286       2.217       1.125      3.3628E-03
   6    9.997       8.865       7.726       6.593       5.481       4.395       3.323       2.245       1.140      3.4055E-03
   7    9.997       8.894       7.781       6.669       5.569       4.482       3.398       2.298       1.168      3.4893E-03
   8    9.997       8.928       7.846       6.759       5.672       4.584       3.486       2.362       1.201      3.5885E-03
   9    9.997       8.957       7.902       6.836       5.761       4.672       3.561       2.416       1.229      3.6737E-03
  10    9.997       8.973       7.934       6.880       5.811       4.721       3.603       2.447       1.246      3.7222E-03

 HEAD WILL BE SAVED ON UNIT   51 AT END OF TIME STEP   69, STRESS PERIOD    5

 DRAWDOWN WILL BE SAVED ON UNIT   52 AT END OF TIME STEP   69, STRESS PERIOD    5
1
  VOLUMETRIC BUDGET FOR ENTIRE MODEL AT END OF TIME STEP   69, STRESS PERIOD   5
  ------------------------------------------------------------------------------

     CUMULATIVE VOLUMES      L**3       RATES FOR THIS TIME STEP      L**3/T
     ------------------                 ------------------------

           IN:                                      IN:
           ---                                      ---
             STORAGE =      533521.1875               STORAGE =          42.2881
       CONSTANT HEAD =           0.0000         CONSTANT HEAD =           0.0000
               WELLS =           0.0000                 WELLS =           0.0000
     HEAD DEP BOUNDS =      126612.0859       HEAD DEP BOUNDS =         652.7620

            TOTAL IN =      660133.2500              TOTAL IN =         695.0500

          OUT:                                     OUT:
          ----                                     ----
             STORAGE =       14612.8564               STORAGE =         104.0071
       CONSTANT HEAD =           0.0000         CONSTANT HEAD =           0.0000
               WELLS =      100000.0000                 WELLS =           0.0000
     HEAD DEP BOUNDS =      545522.3125       HEAD DEP BOUNDS =         591.0284

           TOTAL OUT =      660135.1875             TOTAL OUT =         695.0355

            IN - OUT =          -1.9375              IN - OUT =       1.4526E-02

 PERCENT DISCREPANCY =          -0.00     PERCENT DISCREPANCY =           0.00






         TIME SUMMARY AT END OF TIME STEP   69 IN STRESS PERIOD    5
                    SECONDS     MINUTES      HOURS       DAYS        YEARS
                    -----------------------------------------------------------
   TIME STEP LENGTH  86400.      1440.0      24.000      1.0000     2.73785E-03
 STRESS PERIOD TIME 5.96160E+06  99360.      1656.0      69.000     0.18891    
         TOTAL TIME 3.19680E+07 5.32800E+05  8880.0      370.00      1.0130    
1
 
 SOLVING FOR HEAD 

 OUTPUT CONTROL FOR STRESS PERIOD    5   TIME STEP   70
    SAVE HEAD FOR ALL LAYERS
    SAVE DRAWDOWN FOR ALL LAYERS
    SAVE BUDGET
    PRINT HEAD FOR ALL LAYERS
    PRINT BUDGET
 UBDSV1 SAVING "         STORAGE" ON UNIT  53 AT TIME STEP 70, STRESS PERIOD   5
 UBDSV2 SAVING "   CONSTANT HEAD" ON UNIT  53 AT TIME STEP 70, STRESS PERIOD   5
 UBDSV1 SAVING "FLOW RIGHT FACE " ON UNIT  53 AT TIME STEP 70, STRESS PERIOD   5
 UBDSV1 SAVING "FLOW FRONT FACE " ON UNIT  53 AT TIME STEP 70, STRESS PERIOD   5
 UBDSV1 SAVING "FLOW LOWER FACE " ON UNIT  53 AT TIME STEP 70, STRESS PERIOD   5
1
              HEAD IN LAYER   1 AT END OF TIME STEP  70 IN STRESS PERIOD    5
  ---------------------------------------------------------------------------

            1           2           3           4           5           6           7           8           9          10
 ........................................................................................................................
   1    9.997       8.905       7.801       6.697       5.602       4.514       3.424       2.317       1.178      1.6227E-03
   2    9.997       8.892       7.775       6.662       5.561       4.474       3.390       2.293       1.166      1.6044E-03
   3    9.997       8.872       7.736       6.607       5.497       4.411       3.337       2.255       1.146      1.5764E-03
   4    9.997       8.855       7.704       6.561       5.444       4.359       3.293       2.224       1.130      1.5533E-03
   5    9.997       8.852       7.697       6.551       5.432       4.347       3.284       2.218       1.127      1.5492E-03
   6    9.997       8.866       7.725       6.590       5.477       4.392       3.323       2.246       1.142      1.5702E-03
   7    9.997       8.896       7.782       6.669       5.568       4.482       3.399       2.301       1.171      1.6121E-03
   8    9.997       8.930       7.848       6.761       5.674       4.587       3.489       2.366       1.205      1.6617E-03
   9    9.997       8.960       7.906       6.840       5.765       4.677       3.566       2.421       1.234      1.7042E-03
  10    9.998       8.976       7.938       6.885       5.817       4.728       3.610       2.453       1.251      1.7285E-03
1
              HEAD IN LAYER   2 AT END OF TIME STEP  70 IN STRESS PERIOD    5
  ---------------------------------------------------------------------------

            1           2           3           4           5           6           7           8           9          10
 ........................................................................................................................
   1    9.997       8.903       7.799       6.696       5.600       4.512       3.422       2.314       1.176      3.2307E-03
   2    9.997       8.891       7.775       6.661       5.560       4.473       3.389       2.291       1.164      3.1967E-03
   3    9.997       8.871       7.737       6.608       5.499       4.412       3.337       2.254       1.145      3.1449E-03
   4    9.997       8.855       7.705       6.564       5.448       4.362       3.295       2.224       1.130      3.1022E-03
   5    9.997       8.852       7.699       6.555       5.437       4.351       3.286       2.218       1.127      3.0947E-03
   6    9.997       8.867       7.727       6.593       5.481       4.395       3.324       2.246       1.141      3.1344E-03
   7    9.997       8.895       7.782       6.670       5.569       4.483       3.399       2.300       1.169      3.2123E-03
   8    9.997       8.929       7.848       6.761       5.674       4.586       3.487       2.364       1.203      3.3046E-03
   9    9.997       8.958       7.904       6.838       5.762       4.674       3.563       2.418       1.232      3.3837E-03
  10    9.997       8.974       7.935       6.882       5.813       4.724       3.606       2.449       1.248      3.4288E-03
1
              HEAD IN LAYER   3 AT END OF TIME STEP  70 IN STRESS PERIOD    5
  ---------------------------------------------------------------------------

            1           2           3           4           5           6           7           8           9          10
 ........................................................................................................................
   1    9.997       8.902       7.798       6.695       5.599       4.510       3.420       2.312       1.174      3.4818E-03
   2    9.997       8.890       7.774       6.661       5.560       4.472       3.387       2.289       1.162      3.4460E-03
   3    9.997       8.871       7.737       6.610       5.500       4.413       3.337       2.253       1.144      3.3916E-03
   4    9.997       8.856       7.707       6.567       5.451       4.364       3.296       2.224       1.129      3.3469E-03
   5    9.997       8.853       7.701       6.558       5.440       4.354       3.288       2.219       1.126      3.3393E-03
   6    9.997       8.867       7.728       6.596       5.484       4.397       3.325       2.246       1.140      3.3814E-03
   7    9.997       8.895       7.783       6.671       5.571       4.483       3.399       2.299       1.168      3.4640E-03
   8    9.997       8.928       7.847       6.760       5.673       4.585       3.486       2.362       1.201      3.5616E-03
   9    9.997       8.957       7.902       6.836       5.760       4.671       3.560       2.415       1.229      3.6455E-03
  10    9.997       8.973       7.933       6.879       5.810       4.720       3.602       2.446       1.245      3.6933E-03
1
              HEAD IN LAYER   4 AT END OF TIME STEP  70 IN STRESS PERIOD    5
  ---------------------------------------------------------------------------

            1           2           3           4           5           6           7           8           9          10
 ........................................................................................................................
   1    9.997       8.902       7.798       6.694       5.598       4.509       3.419       2.311       1.173      3.5059E-03
   2    9.997       8.890       7.774       6.661       5.560       4.471       3.386       2.288       1.161      3.4703E-03
   3    9.997       8.871       7.738       6.610       5.501       4.414       3.337       2.253       1.143      3.4161E-03
   4    9.997       8.856       7.707       6.568       5.452       4.365       3.297       2.224       1.128      3.3717E-03
   5    9.997       8.853       7.702       6.560       5.442       4.356       3.289       2.219       1.126      3.3643E-03
   6    9.997       8.867       7.729       6.597       5.485       4.399       3.326       2.246       1.140      3.4065E-03
   7    9.997       8.895       7.783       6.672       5.571       4.484       3.399       2.298       1.168      3.4889E-03
   8    9.997       8.928       7.847       6.760       5.672       4.584       3.485       2.361       1.200      3.5865E-03
   9    9.997       8.956       7.901       6.835       5.759       4.670       3.559       2.414       1.228      3.6704E-03
  10    9.997       8.972       7.932       6.878       5.808       4.719       3.601       2.444       1.244      3.7181E-03

 HEAD WILL BE SAVED ON UNIT   51 AT END OF TIME STEP   70, STRESS PERIOD    5

 DRAWDOWN WILL BE SAVED ON UNIT   52 AT END OF TIME STEP   70, STRESS PERIOD    5
1
  VOLUMETRIC BUDGET FOR ENTIRE MODEL AT END OF TIME STEP   70, STRESS PERIOD   5
  ------------------------------------------------------------------------------

     CUMULATIVE VOLUMES      L**3       RATES FOR THIS TIME STEP      L**3/T
     ------------------                 ------------------------

           IN:                                      IN:
           ---                                      ---
             STORAGE =      533562.0625               STORAGE =          40.8456
       CONSTANT HEAD =           0.0000         CONSTANT HEAD =           0.0000
               WELLS =           0.0000                 WELLS =           0.0000
     HEAD DEP BOUNDS =      127264.5234       HEAD DEP BOUNDS =         652.4362

            TOTAL IN =      660826.5625              TOTAL IN =         693.2819

          OUT:                                     OUT:
          ----                                     ----
             STORAGE =       14715.2871               STORAGE =         102.4306
       CONSTANT HEAD =           0.0000         CONSTANT HEAD =           0.0000
               WELLS =      100000.0000                 WELLS =           0.0000
     HEAD DEP BOUNDS =      546113.1250       HEAD DEP BOUNDS =         590.8305

           TOTAL OUT =      660828.4375             TOTAL OUT =         693.2611

            IN - OUT =          -1.8750              IN - OUT =       2.0752E-02

 PERCENT DISCREPANCY =          -0.00     PERCENT DISCREPANCY =           0.00






         TIME SUMMARY AT END OF TIME STEP   70 IN STRESS PERIOD    5
                    SECONDS     MINUTES      HOURS       DAYS        YEARS
                    -----------------------------------------------------------
   TIME STEP LENGTH  86400.      1440.0      24.000      1.0000     2.73785E-03
 STRESS PERIOD TIME 6.04800E+06 1.00800E+05  1680.0      70.000     0.19165    
         TOTAL TIME 3.20544E+07 5.34240E+05  8904.0      371.00      1.0157    
1
 
 SOLVING FOR HEAD 

 OUTPUT CONTROL FOR STRESS PERIOD    5   TIME STEP   71
    SAVE HEAD FOR ALL LAYERS
    SAVE DRAWDOWN FOR ALL LAYERS
    SAVE BUDGET
    PRINT HEAD FOR ALL LAYERS
    PRINT BUDGET
 UBDSV1 SAVING "         STORAGE" ON UNIT  53 AT TIME STEP 71, STRESS PERIOD   5
 UBDSV2 SAVING "   CONSTANT HEAD" ON UNIT  53 AT TIME STEP 71, STRESS PERIOD   5
 UBDSV1 SAVING "FLOW RIGHT FACE " ON UNIT  53 AT TIME STEP 71, STRESS PERIOD   5
 UBDSV1 SAVING "FLOW FRONT FACE " ON UNIT  53 AT TIME STEP 71, STRESS PERIOD   5
 UBDSV1 SAVING "FLOW LOWER FACE " ON UNIT  53 AT TIME STEP 71, STRESS PERIOD   5
1
              HEAD IN LAYER   1 AT END OF TIME STEP  71 IN STRESS PERIOD    5
  ---------------------------------------------------------------------------

            1           2           3           4           5           6           7           8           9          10
 ........................................................................................................................
   1    9.997       8.905       7.801       6.697       5.601       4.513       3.423       2.315       1.177      1.6215E-03
   2    9.997       8.892       7.776       6.663       5.561       4.474       3.390       2.292       1.165      1.6035E-03
   3    9.997       8.873       7.738       6.610       5.500       4.413       3.339       2.255       1.146      1.5762E-03
   4    9.997       8.857       7.707       6.565       5.449       4.363       3.296       2.225       1.131      1.5539E-03
   5    9.997       8.854       7.700       6.556       5.438       4.352       3.287       2.220       1.128      1.5498E-03
   6    9.997       8.868       7.728       6.595       5.482       4.396       3.325       2.247       1.142      1.5708E-03
   7    9.997       8.896       7.783       6.671       5.571       4.484       3.400       2.301       1.171      1.6118E-03
   8    9.997       8.930       7.849       6.762       5.675       4.587       3.489       2.365       1.204      1.6605E-03
   9    9.997       8.959       7.905       6.839       5.764       4.675       3.564       2.419       1.233      1.7025E-03
  10    9.998       8.976       7.937       6.883       5.814       4.725       3.607       2.450       1.249      1.7265E-03
1
              HEAD IN LAYER   2 AT END OF TIME STEP  71 IN STRESS PERIOD    5
  ---------------------------------------------------------------------------

            1           2           3           4           5           6           7           8           9          10
 ........................................................................................................................
   1    9.997       8.903       7.799       6.696       5.599       4.511       3.421       2.313       1.175      3.2282E-03
   2    9.997       8.891       7.775       6.662       5.561       4.473       3.388       2.290       1.163      3.1950E-03
   3    9.997       8.872       7.739       6.611       5.502       4.414       3.339       2.254       1.145      3.1446E-03
   4    9.997       8.857       7.708       6.568       5.452       4.366       3.297       2.225       1.130      3.1031E-03
   5    9.997       8.854       7.703       6.560       5.442       4.356       3.289       2.220       1.127      3.0961E-03
   6    9.997       8.868       7.730       6.598       5.486       4.399       3.327       2.247       1.141      3.1353E-03
   7    9.997       8.896       7.784       6.673       5.572       4.485       3.400       2.300       1.169      3.2119E-03
   8    9.997       8.929       7.848       6.761       5.674       4.586       3.487       2.363       1.202      3.3026E-03
   9    9.997       8.957       7.903       6.837       5.761       4.672       3.561       2.416       1.231      3.3806E-03
  10    9.997       8.974       7.934       6.880       5.810       4.721       3.603       2.447       1.247      3.4250E-03
1
              HEAD IN LAYER   3 AT END OF TIME STEP  71 IN STRESS PERIOD    5
  ---------------------------------------------------------------------------

            1           2           3           4           5           6           7           8           9          10
 ........................................................................................................................
   1    9.997       8.902       7.798       6.694       5.598       4.509       3.419       2.311       1.173      3.4792E-03
   2    9.997       8.890       7.775       6.662       5.561       4.472       3.387       2.288       1.162      3.4443E-03
   3    9.997       8.872       7.739       6.612       5.503       4.415       3.338       2.254       1.144      3.3913E-03
   4    9.997       8.857       7.710       6.571       5.455       4.368       3.298       2.225       1.129      3.3479E-03
   5    9.997       8.854       7.704       6.563       5.446       4.359       3.291       2.220       1.127      3.3409E-03
   6    9.997       8.868       7.731       6.600       5.489       4.401       3.328       2.247       1.141      3.3824E-03
   7    9.997       8.896       7.784       6.674       5.573       4.485       3.400       2.299       1.168      3.4636E-03
   8    9.997       8.928       7.847       6.760       5.673       4.585       3.485       2.361       1.200      3.5596E-03
   9    9.997       8.956       7.901       6.835       5.759       4.669       3.558       2.414       1.228      3.6423E-03
  10    9.997       8.972       7.932       6.877       5.807       4.718       3.600       2.444       1.244      3.6893E-03
1
              HEAD IN LAYER   4 AT END OF TIME STEP  71 IN STRESS PERIOD    5
  ---------------------------------------------------------------------------

            1           2           3           4           5           6           7           8           9          10
 ........................................................................................................................
   1    9.997       8.902       7.798       6.694       5.597       4.508       3.417       2.310       1.172      3.5034E-03
   2    9.997       8.890       7.775       6.662       5.560       4.472       3.386       2.287       1.161      3.4686E-03
   3    9.997       8.872       7.739       6.613       5.504       4.416       3.338       2.253       1.143      3.4158E-03
   4    9.997       8.857       7.710       6.572       5.456       4.369       3.299       2.225       1.129      3.3727E-03
   5    9.997       8.855       7.705       6.564       5.448       4.360       3.292       2.221       1.126      3.3659E-03
   6    9.997       8.868       7.732       6.601       5.490       4.402       3.328       2.247       1.140      3.4075E-03
   7    9.997       8.896       7.785       6.674       5.574       4.486       3.400       2.299       1.167      3.4886E-03
   8    9.997       8.928       7.847       6.760       5.673       4.584       3.484       2.360       1.200      3.5845E-03
   9    9.997       8.956       7.900       6.834       5.758       4.668       3.557       2.412       1.227      3.6671E-03
  10    9.997       8.972       7.931       6.876       5.806       4.716       3.598       2.442       1.243      3.7142E-03

 HEAD WILL BE SAVED ON UNIT   51 AT END OF TIME STEP   71, STRESS PERIOD    5

 DRAWDOWN WILL BE SAVED ON UNIT   52 AT END OF TIME STEP   71, STRESS PERIOD    5
1
  VOLUMETRIC BUDGET FOR ENTIRE MODEL AT END OF TIME STEP   71, STRESS PERIOD   5
  ------------------------------------------------------------------------------

     CUMULATIVE VOLUMES      L**3       RATES FOR THIS TIME STEP      L**3/T
     ------------------                 ------------------------

           IN:                                      IN:
           ---                                      ---
             STORAGE =      533601.5000               STORAGE =          39.4449
       CONSTANT HEAD =           0.0000         CONSTANT HEAD =           0.0000
               WELLS =           0.0000                 WELLS =           0.0000
     HEAD DEP BOUNDS =      127916.6016       HEAD DEP BOUNDS =         652.0769

            TOTAL IN =      661518.1250              TOTAL IN =         691.5219

          OUT:                                     OUT:
          ----                                     ----
             STORAGE =       14816.1631               STORAGE =         100.8764
       CONSTANT HEAD =           0.0000         CONSTANT HEAD =           0.0000
               WELLS =      100000.0000                 WELLS =           0.0000
     HEAD DEP BOUNDS =      546703.7500       HEAD DEP BOUNDS =         590.6434

           TOTAL OUT =      661519.9375             TOTAL OUT =         691.5198

            IN - OUT =          -1.8125              IN - OUT =       2.0752E-03

 PERCENT DISCREPANCY =          -0.00     PERCENT DISCREPANCY =           0.00






         TIME SUMMARY AT END OF TIME STEP   71 IN STRESS PERIOD    5
                    SECONDS     MINUTES      HOURS       DAYS        YEARS
                    -----------------------------------------------------------
   TIME STEP LENGTH  86400.      1440.0      24.000      1.0000     2.73785E-03
 STRESS PERIOD TIME 6.13440E+06 1.02240E+05  1704.0      71.000     0.19439    
         TOTAL TIME 3.21408E+07 5.35680E+05  8928.0      372.00      1.0185    
1
 
 SOLVING FOR HEAD 

 OUTPUT CONTROL FOR STRESS PERIOD    5   TIME STEP   72
    SAVE HEAD FOR ALL LAYERS
    SAVE DRAWDOWN FOR ALL LAYERS
    SAVE BUDGET
    PRINT HEAD FOR ALL LAYERS
    PRINT BUDGET
 UBDSV1 SAVING "         STORAGE" ON UNIT  53 AT TIME STEP 72, STRESS PERIOD   5
 UBDSV2 SAVING "   CONSTANT HEAD" ON UNIT  53 AT TIME STEP 72, STRESS PERIOD   5
 UBDSV1 SAVING "FLOW RIGHT FACE " ON UNIT  53 AT TIME STEP 72, STRESS PERIOD   5
 UBDSV1 SAVING "FLOW FRONT FACE " ON UNIT  53 AT TIME STEP 72, STRESS PERIOD   5
 UBDSV1 SAVING "FLOW LOWER FACE " ON UNIT  53 AT TIME STEP 72, STRESS PERIOD   5
1
              HEAD IN LAYER   1 AT END OF TIME STEP  72 IN STRESS PERIOD    5
  ---------------------------------------------------------------------------

            1           2           3           4           5           6           7           8           9          10
 ........................................................................................................................
   1    9.997       8.905       7.801       6.697       5.601       4.512       3.422       2.314       1.176      1.6201E-03
   2    9.997       8.892       7.777       6.663       5.562       4.474       3.389       2.291       1.164      1.6026E-03
   3    9.997       8.874       7.740       6.612       5.503       4.416       3.340       2.256       1.146      1.5761E-03
   4    9.997       8.858       7.710       6.570       5.453       4.367       3.298       2.226       1.131      1.5543E-03
   5    9.997       8.855       7.704       6.561       5.443       4.357       3.291       2.221       1.128      1.5506E-03
   6    9.997       8.869       7.731       6.599       5.487       4.400       3.328       2.248       1.143      1.5712E-03
   7    9.997       8.897       7.785       6.674       5.573       4.486       3.401       2.301       1.171      1.6116E-03
   8    9.997       8.930       7.849       6.762       5.675       4.587       3.488       2.364       1.203      1.6595E-03
   9    9.997       8.959       7.904       6.838       5.762       4.673       3.562       2.418       1.232      1.7009E-03
  10    9.998       8.975       7.935       6.881       5.811       4.722       3.604       2.448       1.248      1.7245E-03
1
              HEAD IN LAYER   2 AT END OF TIME STEP  72 IN STRESS PERIOD    5
  ---------------------------------------------------------------------------

            1           2           3           4           5           6           7           8           9          10
 ........................................................................................................................
   1    9.997       8.903       7.799       6.695       5.599       4.510       3.419       2.312       1.174      3.2258E-03
   2    9.997       8.891       7.776       6.663       5.562       4.473       3.388       2.289       1.163      3.1934E-03
   3    9.997       8.873       7.741       6.614       5.504       4.417       3.340       2.255       1.145      3.1443E-03
   4    9.997       8.858       7.711       6.573       5.457       4.369       3.300       2.226       1.130      3.1040E-03
   5    9.997       8.856       7.706       6.565       5.448       4.361       3.293       2.222       1.128      3.0975E-03
   6    9.997       8.870       7.733       6.602       5.490       4.403       3.329       2.248       1.142      3.1362E-03
   7    9.997       8.897       7.786       6.675       5.575       4.487       3.401       2.300       1.169      3.2116E-03
   8    9.997       8.929       7.848       6.761       5.674       4.586       3.486       2.362       1.202      3.3008E-03
   9    9.997       8.957       7.902       6.836       5.759       4.670       3.559       2.415       1.229      3.3776E-03
  10    9.997       8.973       7.932       6.878       5.808       4.718       3.600       2.445       1.245      3.4214E-03
1
              HEAD IN LAYER   3 AT END OF TIME STEP  72 IN STRESS PERIOD    5
  ---------------------------------------------------------------------------

            1           2           3           4           5           6           7           8           9          10
 ........................................................................................................................
   1    9.997       8.902       7.798       6.694       5.598       4.509       3.417       2.309       1.173      3.4768E-03
   2    9.997       8.891       7.776       6.663       5.561       4.472       3.387       2.287       1.161      3.4427E-03
   3    9.997       8.873       7.741       6.615       5.506       4.417       3.340       2.254       1.144      3.3911E-03
   4    9.997       8.859       7.713       6.575       5.460       4.372       3.301       2.226       1.129      3.3489E-03
   5    9.997       8.856       7.708       6.568       5.451       4.363       3.294       2.222       1.127      3.3424E-03
   6    9.997       8.870       7.734       6.604       5.493       4.405       3.330       2.248       1.141      3.3834E-03
   7    9.997       8.897       7.786       6.676       5.576       4.487       3.401       2.299       1.168      3.4633E-03
   8    9.997       8.928       7.848       6.761       5.673       4.584       3.484       2.360       1.200      3.5577E-03
   9    9.997       8.956       7.900       6.834       5.757       4.668       3.556       2.412       1.227      3.6391E-03
  10    9.997       8.971       7.931       6.875       5.805       4.715       3.597       2.441       1.243      3.6855E-03
1
              HEAD IN LAYER   4 AT END OF TIME STEP  72 IN STRESS PERIOD    5
  ---------------------------------------------------------------------------

            1           2           3           4           5           6           7           8           9          10
 ........................................................................................................................
   1    9.997       8.902       7.798       6.694       5.597       4.508       3.416       2.308       1.172      3.5009E-03
   2    9.997       8.890       7.775       6.663       5.561       4.472       3.386       2.287       1.160      3.4670E-03
   3    9.997       8.873       7.741       6.615       5.506       4.418       3.340       2.253       1.143      3.4156E-03
   4    9.997       8.859       7.713       6.576       5.461       4.373       3.302       2.226       1.129      3.3738E-03
   5    9.997       8.856       7.709       6.569       5.453       4.365       3.295       2.222       1.127      3.3674E-03
   6    9.997       8.870       7.735       6.605       5.494       4.406       3.331       2.248       1.141      3.4085E-03
   7    9.997       8.896       7.786       6.676       5.576       4.488       3.401       2.299       1.167      3.4882E-03
   8    9.997       8.928       7.847       6.761       5.673       4.584       3.484       2.359       1.199      3.5826E-03
   9    9.997       8.955       7.900       6.833       5.756       4.666       3.555       2.410       1.226      3.6639E-03
  10    9.997       8.971       7.930       6.874       5.803       4.713       3.595       2.440       1.242      3.7103E-03

 HEAD WILL BE SAVED ON UNIT   51 AT END OF TIME STEP   72, STRESS PERIOD    5

 DRAWDOWN WILL BE SAVED ON UNIT   52 AT END OF TIME STEP   72, STRESS PERIOD    5
1
  VOLUMETRIC BUDGET FOR ENTIRE MODEL AT END OF TIME STEP   72, STRESS PERIOD   5
  ------------------------------------------------------------------------------

     CUMULATIVE VOLUMES      L**3       RATES FOR THIS TIME STEP      L**3/T
     ------------------                 ------------------------

           IN:                                      IN:
           ---                                      ---
             STORAGE =      533639.5625               STORAGE =          38.0703
       CONSTANT HEAD =           0.0000         CONSTANT HEAD =           0.0000
               WELLS =           0.0000                 WELLS =           0.0000
     HEAD DEP BOUNDS =      128568.3438       HEAD DEP BOUNDS =         651.7385

            TOTAL IN =      662207.8750              TOTAL IN =         689.8087

          OUT:                                     OUT:
          ----                                     ----
             STORAGE =       14915.5078               STORAGE =          99.3444
       CONSTANT HEAD =           0.0000         CONSTANT HEAD =           0.0000
               WELLS =      100000.0000                 WELLS =           0.0000
     HEAD DEP BOUNDS =      547294.1875       HEAD DEP BOUNDS =         590.4661

           TOTAL OUT =      662209.6875             TOTAL OUT =         689.8104

            IN - OUT =          -1.8125              IN - OUT =      -1.7090E-03

 PERCENT DISCREPANCY =          -0.00     PERCENT DISCREPANCY =          -0.00






         TIME SUMMARY AT END OF TIME STEP   72 IN STRESS PERIOD    5
                    SECONDS     MINUTES      HOURS       DAYS        YEARS
                    -----------------------------------------------------------
   TIME STEP LENGTH  86400.      1440.0      24.000      1.0000     2.73785E-03
 STRESS PERIOD TIME 6.22080E+06 1.03680E+05  1728.0      72.000     0.19713    
         TOTAL TIME 3.22272E+07 5.37120E+05  8952.0      373.00      1.0212    
1
 
 SOLVING FOR HEAD 

 OUTPUT CONTROL FOR STRESS PERIOD    5   TIME STEP   73
    SAVE HEAD FOR ALL LAYERS
    SAVE DRAWDOWN FOR ALL LAYERS
    SAVE BUDGET
    PRINT HEAD FOR ALL LAYERS
    PRINT BUDGET
 UBDSV1 SAVING "         STORAGE" ON UNIT  53 AT TIME STEP 73, STRESS PERIOD   5
 UBDSV2 SAVING "   CONSTANT HEAD" ON UNIT  53 AT TIME STEP 73, STRESS PERIOD   5
 UBDSV1 SAVING "FLOW RIGHT FACE " ON UNIT  53 AT TIME STEP 73, STRESS PERIOD   5
 UBDSV1 SAVING "FLOW FRONT FACE " ON UNIT  53 AT TIME STEP 73, STRESS PERIOD   5
 UBDSV1 SAVING "FLOW LOWER FACE " ON UNIT  53 AT TIME STEP 73, STRESS PERIOD   5
1
              HEAD IN LAYER   1 AT END OF TIME STEP  73 IN STRESS PERIOD    5
  ---------------------------------------------------------------------------

            1           2           3           4           5           6           7           8           9          10
 ........................................................................................................................
   1    9.997       8.905       7.801       6.697       5.600       4.511       3.421       2.313       1.176      1.6189E-03
   2    9.997       8.893       7.777       6.664       5.563       4.474       3.389       2.290       1.164      1.6018E-03
   3    9.997       8.875       7.742       6.615       5.506       4.418       3.341       2.256       1.146      1.5759E-03
   4    9.997       8.860       7.713       6.574       5.458       4.371       3.301       2.228       1.131      1.5548E-03
   5    9.997       8.857       7.707       6.566       5.449       4.362       3.294       2.223       1.129      1.5514E-03
   6    9.997       8.871       7.734       6.603       5.491       4.404       3.330       2.249       1.143      1.5717E-03
   7    9.997       8.898       7.787       6.676       5.576       4.488       3.402       2.301       1.170      1.6114E-03
   8    9.997       8.930       7.849       6.763       5.675       4.587       3.487       2.363       1.203      1.6586E-03
   9    9.997       8.958       7.903       6.837       5.761       4.671       3.560       2.416       1.231      1.6992E-03
  10    9.998       8.974       7.934       6.879       5.809       4.719       3.602       2.446       1.247      1.7225E-03
1
              HEAD IN LAYER   2 AT END OF TIME STEP  73 IN STRESS PERIOD    5
  ---------------------------------------------------------------------------

            1           2           3           4           5           6           7           8           9          10
 ........................................................................................................................
   1    9.997       8.903       7.799       6.695       5.599       4.509       3.418       2.310       1.174      3.2236E-03
   2    9.997       8.892       7.777       6.664       5.563       4.474       3.388       2.288       1.162      3.1919E-03
   3    9.997       8.874       7.742       6.616       5.507       4.419       3.341       2.255       1.145      3.1440E-03
   4    9.997       8.860       7.714       6.577       5.461       4.373       3.302       2.228       1.131      3.1050E-03
   5    9.997       8.857       7.709       6.570       5.453       4.365       3.296       2.223       1.128      3.0990E-03
   6    9.997       8.871       7.736       6.606       5.495       4.407       3.332       2.249       1.142      3.1371E-03
   7    9.997       8.898       7.787       6.677       5.577       4.489       3.402       2.300       1.169      3.2113E-03
   8    9.997       8.929       7.849       6.762       5.674       4.585       3.485       2.361       1.201      3.2990E-03
   9    9.997       8.957       7.901       6.834       5.758       4.668       3.557       2.413       1.228      3.3746E-03
  10    9.997       8.972       7.931       6.876       5.805       4.715       3.598       2.442       1.244      3.4178E-03
1
              HEAD IN LAYER   3 AT END OF TIME STEP  73 IN STRESS PERIOD    5
  ---------------------------------------------------------------------------

            1           2           3           4           5           6           7           8           9          10
 ........................................................................................................................
   1    9.997       8.902       7.798       6.694       5.598       4.508       3.416       2.308       1.172      3.4744E-03
   2    9.997       8.891       7.776       6.664       5.562       4.473       3.386       2.287       1.161      3.4412E-03
   3    9.997       8.874       7.743       6.617       5.508       4.419       3.341       2.254       1.144      3.3909E-03
   4    9.997       8.860       7.716       6.579       5.464       4.375       3.303       2.228       1.130      3.3500E-03
   5    9.997       8.858       7.711       6.572       5.456       4.368       3.297       2.223       1.128      3.3440E-03
   6    9.997       8.871       7.737       6.608       5.497       4.409       3.333       2.249       1.141      3.3845E-03
   7    9.997       8.897       7.788       6.678       5.578       4.489       3.402       2.299       1.168      3.4630E-03
   8    9.997       8.929       7.848       6.761       5.674       4.584       3.484       2.359       1.199      3.5559E-03
   9    9.997       8.955       7.900       6.833       5.756       4.666       3.554       2.410       1.226      3.6360E-03
  10    9.997       8.971       7.929       6.873       5.802       4.712       3.594       2.439       1.242      3.6817E-03
1
              HEAD IN LAYER   4 AT END OF TIME STEP  73 IN STRESS PERIOD    5
  ---------------------------------------------------------------------------

            1           2           3           4           5           6           7           8           9          10
 ........................................................................................................................
   1    9.997       8.902       7.798       6.694       5.597       4.507       3.415       2.307       1.171      3.4986E-03
   2    9.997       8.891       7.776       6.664       5.562       4.472       3.386       2.286       1.160      3.4655E-03
   3    9.997       8.874       7.743       6.618       5.509       4.420       3.341       2.254       1.143      3.4154E-03
   4    9.997       8.860       7.716       6.580       5.465       4.377       3.304       2.228       1.129      3.3748E-03
   5    9.997       8.858       7.712       6.574       5.458       4.369       3.298       2.224       1.127      3.3690E-03
   6    9.997       8.871       7.738       6.609       5.499       4.410       3.333       2.249       1.141      3.4096E-03
   7    9.997       8.897       7.788       6.679       5.579       4.490       3.402       2.299       1.167      3.4880E-03
   8    9.997       8.928       7.848       6.761       5.673       4.584       3.483       2.358       1.198      3.5808E-03
   9    9.997       8.955       7.899       6.832       5.755       4.665       3.553       2.409       1.225      3.6608E-03
  10    9.997       8.970       7.928       6.872       5.801       4.711       3.593       2.438       1.240      3.7066E-03

 HEAD WILL BE SAVED ON UNIT   51 AT END OF TIME STEP   73, STRESS PERIOD    5

 DRAWDOWN WILL BE SAVED ON UNIT   52 AT END OF TIME STEP   73, STRESS PERIOD    5
1
  VOLUMETRIC BUDGET FOR ENTIRE MODEL AT END OF TIME STEP   73, STRESS PERIOD   5
  ------------------------------------------------------------------------------

     CUMULATIVE VOLUMES      L**3       RATES FOR THIS TIME STEP      L**3/T
     ------------------                 ------------------------

           IN:                                      IN:
           ---                                      ---
             STORAGE =      533676.3125               STORAGE =          36.7387
       CONSTANT HEAD =           0.0000         CONSTANT HEAD =           0.0000
               WELLS =           0.0000                 WELLS =           0.0000
     HEAD DEP BOUNDS =      129219.7656       HEAD DEP BOUNDS =         651.4211

            TOTAL IN =      662896.0625              TOTAL IN =         688.1598

          OUT:                                     OUT:
          ----                                     ----
             STORAGE =       15013.3467               STORAGE =          97.8391
       CONSTANT HEAD =           0.0000         CONSTANT HEAD =           0.0000
               WELLS =      100000.0000                 WELLS =           0.0000
     HEAD DEP BOUNDS =      547884.5000       HEAD DEP BOUNDS =         590.3008

           TOTAL OUT =      662897.8750             TOTAL OUT =         688.1398

            IN - OUT =          -1.8125              IN - OUT =       1.9958E-02

 PERCENT DISCREPANCY =          -0.00     PERCENT DISCREPANCY =           0.00






         TIME SUMMARY AT END OF TIME STEP   73 IN STRESS PERIOD    5
                    SECONDS     MINUTES      HOURS       DAYS        YEARS
                    -----------------------------------------------------------
   TIME STEP LENGTH  86400.      1440.0      24.000      1.0000     2.73785E-03
 STRESS PERIOD TIME 6.30720E+06 1.05120E+05  1752.0      73.000     0.19986    
         TOTAL TIME 3.23136E+07 5.38560E+05  8976.0      374.00      1.0240    
1
 
 SOLVING FOR HEAD 

 OUTPUT CONTROL FOR STRESS PERIOD    5   TIME STEP   74
    SAVE HEAD FOR ALL LAYERS
    SAVE DRAWDOWN FOR ALL LAYERS
    SAVE BUDGET
    PRINT HEAD FOR ALL LAYERS
    PRINT BUDGET
 UBDSV1 SAVING "         STORAGE" ON UNIT  53 AT TIME STEP 74, STRESS PERIOD   5
 UBDSV2 SAVING "   CONSTANT HEAD" ON UNIT  53 AT TIME STEP 74, STRESS PERIOD   5
 UBDSV1 SAVING "FLOW RIGHT FACE " ON UNIT  53 AT TIME STEP 74, STRESS PERIOD   5
 UBDSV1 SAVING "FLOW FRONT FACE " ON UNIT  53 AT TIME STEP 74, STRESS PERIOD   5
 UBDSV1 SAVING "FLOW LOWER FACE " ON UNIT  53 AT TIME STEP 74, STRESS PERIOD   5
1
              HEAD IN LAYER   1 AT END OF TIME STEP  74 IN STRESS PERIOD    5
  ---------------------------------------------------------------------------

            1           2           3           4           5           6           7           8           9          10
 ........................................................................................................................
   1    9.997       8.905       7.801       6.697       5.600       4.511       3.419       2.312       1.175      1.6177E-03
   2    9.997       8.893       7.778       6.665       5.564       4.475       3.389       2.290       1.163      1.6011E-03
   3    9.997       8.875       7.744       6.617       5.508       4.420       3.342       2.256       1.146      1.5757E-03
   4    9.997       8.861       7.716       6.578       5.462       4.374       3.303       2.229       1.132      1.5553E-03
   5    9.997       8.859       7.711       6.571       5.454       4.366       3.297       2.224       1.130      1.5522E-03
   6    9.997       8.872       7.737       6.607       5.496       4.408       3.333       2.251       1.143      1.5722E-03
   7    9.997       8.899       7.789       6.678       5.578       4.490       3.403       2.302       1.170      1.6113E-03
   8    9.997       8.931       7.850       6.763       5.676       4.587       3.487       2.362       1.202      1.6576E-03
   9    9.997       8.958       7.902       6.836       5.759       4.670       3.558       2.414       1.230      1.6977E-03
  10    9.998       8.973       7.932       6.877       5.807       4.717       3.599       2.444       1.245      1.7206E-03
1
              HEAD IN LAYER   2 AT END OF TIME STEP  74 IN STRESS PERIOD    5
  ---------------------------------------------------------------------------

            1           2           3           4           5           6           7           8           9          10
 ........................................................................................................................
   1    9.997       8.903       7.799       6.695       5.598       4.509       3.417       2.309       1.173      3.2214E-03
   2    9.997       8.892       7.777       6.665       5.563       4.474       3.387       2.288       1.162      3.1905E-03
   3    9.997       8.875       7.744       6.619       5.510       4.421       3.342       2.255       1.145      3.1438E-03
   4    9.997       8.861       7.717       6.581       5.466       4.377       3.305       2.229       1.131      3.1060E-03
   5    9.997       8.859       7.713       6.574       5.458       4.369       3.299       2.225       1.129      3.1005E-03
   6    9.997       8.872       7.739       6.610       5.499       4.410       3.334       2.250       1.143      3.1381E-03
   7    9.997       8.899       7.789       6.680       5.580       4.491       3.403       2.301       1.169      3.2110E-03
   8    9.997       8.929       7.849       6.762       5.675       4.585       3.485       2.360       1.200      3.2973E-03
   9    9.997       8.956       7.900       6.833       5.757       4.667       3.555       2.411       1.227      3.3718E-03
  10    9.997       8.971       7.930       6.874       5.803       4.713       3.595       2.440       1.243      3.4143E-03
1
              HEAD IN LAYER   3 AT END OF TIME STEP  74 IN STRESS PERIOD    5
  ---------------------------------------------------------------------------

            1           2           3           4           5           6           7           8           9          10
 ........................................................................................................................
   1    9.997       8.902       7.798       6.694       5.597       4.507       3.415       2.307       1.171      3.4721E-03
   2    9.997       8.891       7.777       6.665       5.563       4.473       3.386       2.286       1.160      3.4397E-03
   3    9.997       8.875       7.745       6.620       5.511       4.422       3.342       2.254       1.143      3.3907E-03
   4    9.997       8.861       7.718       6.583       5.468       4.379       3.306       2.229       1.130      3.3511E-03
   5    9.997       8.859       7.714       6.577       5.461       4.372       3.300       2.225       1.128      3.3456E-03
   6    9.997       8.873       7.740       6.612       5.501       4.412       3.335       2.250       1.142      3.3855E-03
   7    9.997       8.898       7.789       6.681       5.581       4.491       3.403       2.300       1.168      3.4627E-03
   8    9.997       8.929       7.848       6.762       5.674       4.584       3.483       2.358       1.199      3.5541E-03
   9    9.997       8.955       7.899       6.832       5.754       4.664       3.552       2.408       1.225      3.6329E-03
  10    9.997       8.970       7.928       6.872       5.800       4.710       3.592       2.437       1.240      3.6780E-03
1
              HEAD IN LAYER   4 AT END OF TIME STEP  74 IN STRESS PERIOD    5
  ---------------------------------------------------------------------------

            1           2           3           4           5           6           7           8           9          10
 ........................................................................................................................
   1    9.997       8.902       7.798       6.694       5.597       4.506       3.414       2.306       1.170      3.4963E-03
   2    9.997       8.891       7.777       6.665       5.563       4.473       3.385       2.285       1.159      3.4640E-03
   3    9.997       8.875       7.745       6.620       5.512       4.422       3.342       2.254       1.143      3.4153E-03
   4    9.997       8.861       7.719       6.584       5.469       4.380       3.306       2.229       1.130      3.3759E-03
   5    9.997       8.860       7.715       6.578       5.463       4.373       3.301       2.225       1.128      3.3706E-03
   6    9.997       8.873       7.740       6.613       5.503       4.413       3.336       2.250       1.141      3.4106E-03
   7    9.997       8.898       7.790       6.681       5.581       4.491       3.403       2.299       1.167      3.4877E-03
   8    9.997       8.928       7.848       6.761       5.674       4.584       3.483       2.357       1.198      3.5790E-03
   9    9.997       8.955       7.898       6.831       5.753       4.663       3.551       2.407       1.224      3.6578E-03
  10    9.997       8.969       7.927       6.870       5.799       4.708       3.590       2.436       1.239      3.7028E-03

 HEAD WILL BE SAVED ON UNIT   51 AT END OF TIME STEP   74, STRESS PERIOD    5

 DRAWDOWN WILL BE SAVED ON UNIT   52 AT END OF TIME STEP   74, STRESS PERIOD    5
1
  VOLUMETRIC BUDGET FOR ENTIRE MODEL AT END OF TIME STEP   74, STRESS PERIOD   5
  ------------------------------------------------------------------------------

     CUMULATIVE VOLUMES      L**3       RATES FOR THIS TIME STEP      L**3/T
     ------------------                 ------------------------

           IN:                                      IN:
           ---                                      ---
             STORAGE =      533711.7500               STORAGE =          35.4399
       CONSTANT HEAD =           0.0000         CONSTANT HEAD =           0.0000
               WELLS =           0.0000                 WELLS =           0.0000
     HEAD DEP BOUNDS =      129870.8516       HEAD DEP BOUNDS =         651.0842

            TOTAL IN =      663582.6250              TOTAL IN =         686.5241

          OUT:                                     OUT:
          ----                                     ----
             STORAGE =       15109.7080               STORAGE =          96.3613
       CONSTANT HEAD =           0.0000         CONSTANT HEAD =           0.0000
               WELLS =      100000.0000                 WELLS =           0.0000
     HEAD DEP BOUNDS =      548474.6250       HEAD DEP BOUNDS =         590.1438

           TOTAL OUT =      663584.3125             TOTAL OUT =         686.5051

            IN - OUT =          -1.6875              IN - OUT =       1.8982E-02

 PERCENT DISCREPANCY =          -0.00     PERCENT DISCREPANCY =           0.00






         TIME SUMMARY AT END OF TIME STEP   74 IN STRESS PERIOD    5
                    SECONDS     MINUTES      HOURS       DAYS        YEARS
                    -----------------------------------------------------------
   TIME STEP LENGTH  86400.      1440.0      24.000      1.0000     2.73785E-03
 STRESS PERIOD TIME 6.39360E+06 1.06560E+05  1776.0      74.000     0.20260    
         TOTAL TIME 3.24000E+07 5.40000E+05  9000.0      375.00      1.0267    
1
 
 SOLVING FOR HEAD 

 OUTPUT CONTROL FOR STRESS PERIOD    5   TIME STEP   75
    SAVE HEAD FOR ALL LAYERS
    SAVE DRAWDOWN FOR ALL LAYERS
    SAVE BUDGET
    PRINT HEAD FOR ALL LAYERS
    PRINT BUDGET
 UBDSV1 SAVING "         STORAGE" ON UNIT  53 AT TIME STEP 75, STRESS PERIOD   5
 UBDSV2 SAVING "   CONSTANT HEAD" ON UNIT  53 AT TIME STEP 75, STRESS PERIOD   5
 UBDSV1 SAVING "FLOW RIGHT FACE " ON UNIT  53 AT TIME STEP 75, STRESS PERIOD   5
 UBDSV1 SAVING "FLOW FRONT FACE " ON UNIT  53 AT TIME STEP 75, STRESS PERIOD   5
 UBDSV1 SAVING "FLOW LOWER FACE " ON UNIT  53 AT TIME STEP 75, STRESS PERIOD   5
1
              HEAD IN LAYER   1 AT END OF TIME STEP  75 IN STRESS PERIOD    5
  ---------------------------------------------------------------------------

            1           2           3           4           5           6           7           8           9          10
 ........................................................................................................................
   1    9.997       8.905       7.801       6.697       5.600       4.510       3.418       2.310       1.174      1.6164E-03
   2    9.997       8.893       7.779       6.666       5.565       4.475       3.389       2.289       1.163      1.6003E-03
   3    9.997       8.876       7.746       6.620       5.511       4.422       3.343       2.256       1.146      1.5756E-03
   4    9.997       8.863       7.718       6.582       5.467       4.378       3.306       2.230       1.132      1.5559E-03
   5    9.997       8.860       7.714       6.575       5.459       4.371       3.300       2.226       1.130      1.5530E-03
   6    9.997       8.874       7.740       6.611       5.500       4.411       3.335       2.252       1.144      1.5728E-03
   7    9.997       8.900       7.790       6.681       5.581       4.492       3.404       2.302       1.170      1.6112E-03
   8    9.997       8.931       7.850       6.764       5.676       4.587       3.486       2.361       1.202      1.6567E-03
   9    9.997       8.957       7.902       6.835       5.758       4.668       3.556       2.412       1.229      1.6961E-03
  10    9.998       8.973       7.931       6.875       5.804       4.714       3.596       2.441       1.244      1.7188E-03
1
              HEAD IN LAYER   2 AT END OF TIME STEP  75 IN STRESS PERIOD    5
  ---------------------------------------------------------------------------

            1           2           3           4           5           6           7           8           9          10
 ........................................................................................................................
   1    9.997       8.903       7.799       6.695       5.598       4.508       3.416       2.308       1.172      3.2192E-03
   2    9.997       8.892       7.778       6.666       5.564       4.474       3.387       2.287       1.161      3.1892E-03
   3    9.997       8.876       7.746       6.621       5.512       4.423       3.343       2.256       1.145      3.1437E-03
   4    9.997       8.863       7.720       6.585       5.470       4.381       3.307       2.230       1.131      3.1070E-03
   5    9.997       8.861       7.716       6.579       5.463       4.374       3.302       2.226       1.129      3.1020E-03
   6    9.997       8.874       7.741       6.614       5.503       4.414       3.336       2.252       1.143      3.1391E-03
   7    9.997       8.899       7.791       6.682       5.582       4.492       3.404       2.301       1.169      3.2108E-03
   8    9.997       8.930       7.849       6.763       5.675       4.585       3.484       2.359       1.200      3.2957E-03
   9    9.997       8.956       7.900       6.832       5.755       4.665       3.553       2.409       1.226      3.3689E-03
  10    9.997       8.971       7.929       6.872       5.801       4.710       3.592       2.438       1.241      3.4108E-03
1
              HEAD IN LAYER   3 AT END OF TIME STEP  75 IN STRESS PERIOD    5
  ---------------------------------------------------------------------------

            1           2           3           4           5           6           7           8           9          10
 ........................................................................................................................
   1    9.997       8.902       7.798       6.694       5.597       4.507       3.414       2.306       1.170      3.4699E-03
   2    9.997       8.892       7.778       6.666       5.564       4.474       3.386       2.286       1.160      3.4383E-03
   3    9.997       8.876       7.747       6.622       5.514       4.424       3.343       2.255       1.143      3.3906E-03
   4    9.997       8.863       7.721       6.587       5.472       4.383       3.308       2.230       1.130      3.3522E-03
   5    9.997       8.861       7.717       6.581       5.466       4.376       3.303       2.226       1.129      3.3472E-03
   6    9.997       8.874       7.742       6.616       5.506       4.416       3.337       2.252       1.142      3.3866E-03
   7    9.997       8.899       7.791       6.683       5.583       4.493       3.404       2.300       1.168      3.4625E-03
   8    9.997       8.929       7.849       6.762       5.674       4.584       3.483       2.357       1.198      3.5524E-03
   9    9.997       8.955       7.898       6.831       5.753       4.663       3.551       2.407       1.224      3.6300E-03
  10    9.997       8.969       7.927       6.870       5.798       4.707       3.589       2.435       1.239      3.6743E-03
1
              HEAD IN LAYER   4 AT END OF TIME STEP  75 IN STRESS PERIOD    5
  ---------------------------------------------------------------------------

            1           2           3           4           5           6           7           8           9          10
 ........................................................................................................................
   1    9.997       8.902       7.798       6.694       5.596       4.506       3.413       2.305       1.169      3.4941E-03
   2    9.997       8.891       7.778       6.666       5.564       4.473       3.385       2.285       1.159      3.4626E-03
   3    9.997       8.876       7.747       6.623       5.514       4.424       3.343       2.254       1.143      3.4152E-03
   4    9.997       8.863       7.722       6.588       5.474       4.384       3.309       2.230       1.130      3.3770E-03
   5    9.997       8.861       7.718       6.582       5.467       4.378       3.304       2.227       1.129      3.3722E-03
   6    9.997       8.874       7.743       6.617       5.507       4.417       3.338       2.251       1.142      3.4117E-03
   7    9.997       8.899       7.791       6.683       5.583       4.493       3.404       2.300       1.167      3.4876E-03
   8    9.997       8.929       7.848       6.762       5.674       4.584       3.482       2.356       1.197      3.5773E-03
   9    9.997       8.954       7.898       6.830       5.752       4.661       3.549       2.405       1.223      3.6549E-03
  10    9.997       8.969       7.926       6.869       5.797       4.706       3.588       2.433       1.238      3.6992E-03

 HEAD WILL BE SAVED ON UNIT   51 AT END OF TIME STEP   75, STRESS PERIOD    5

 DRAWDOWN WILL BE SAVED ON UNIT   52 AT END OF TIME STEP   75, STRESS PERIOD    5
1
  VOLUMETRIC BUDGET FOR ENTIRE MODEL AT END OF TIME STEP   75, STRESS PERIOD   5
  ------------------------------------------------------------------------------

     CUMULATIVE VOLUMES      L**3       RATES FOR THIS TIME STEP      L**3/T
     ------------------                 ------------------------

           IN:                                      IN:
           ---                                      ---
             STORAGE =      533745.9375               STORAGE =          34.1771
       CONSTANT HEAD =           0.0000         CONSTANT HEAD =           0.0000
               WELLS =           0.0000                 WELLS =           0.0000
     HEAD DEP BOUNDS =      130521.5938       HEAD DEP BOUNDS =         650.7417

            TOTAL IN =      664267.5000              TOTAL IN =         684.9188

          OUT:                                     OUT:
          ----                                     ----
             STORAGE =       15204.6240               STORAGE =          94.9160
       CONSTANT HEAD =           0.0000         CONSTANT HEAD =           0.0000
               WELLS =      100000.0000                 WELLS =           0.0000
     HEAD DEP BOUNDS =      549064.6250       HEAD DEP BOUNDS =         589.9956

           TOTAL OUT =      664269.2500             TOTAL OUT =         684.9116

            IN - OUT =          -1.7500              IN - OUT =       7.1411E-03

 PERCENT DISCREPANCY =          -0.00     PERCENT DISCREPANCY =           0.00






         TIME SUMMARY AT END OF TIME STEP   75 IN STRESS PERIOD    5
                    SECONDS     MINUTES      HOURS       DAYS        YEARS
                    -----------------------------------------------------------
   TIME STEP LENGTH  86400.      1440.0      24.000      1.0000     2.73785E-03
 STRESS PERIOD TIME 6.48000E+06 1.08000E+05  1800.0      75.000     0.20534    
         TOTAL TIME 3.24864E+07 5.41440E+05  9024.0      376.00      1.0294    
1
 
 SOLVING FOR HEAD 

 OUTPUT CONTROL FOR STRESS PERIOD    5   TIME STEP   76
    SAVE HEAD FOR ALL LAYERS
    SAVE DRAWDOWN FOR ALL LAYERS
    SAVE BUDGET
    PRINT HEAD FOR ALL LAYERS
    PRINT BUDGET
 UBDSV1 SAVING "         STORAGE" ON UNIT  53 AT TIME STEP 76, STRESS PERIOD   5
 UBDSV2 SAVING "   CONSTANT HEAD" ON UNIT  53 AT TIME STEP 76, STRESS PERIOD   5
 UBDSV1 SAVING "FLOW RIGHT FACE " ON UNIT  53 AT TIME STEP 76, STRESS PERIOD   5
 UBDSV1 SAVING "FLOW FRONT FACE " ON UNIT  53 AT TIME STEP 76, STRESS PERIOD   5
 UBDSV1 SAVING "FLOW LOWER FACE " ON UNIT  53 AT TIME STEP 76, STRESS PERIOD   5
1
              HEAD IN LAYER   1 AT END OF TIME STEP  76 IN STRESS PERIOD    5
  ---------------------------------------------------------------------------

            1           2           3           4           5           6           7           8           9          10
 ........................................................................................................................
   1    9.997       8.905       7.801       6.697       5.600       4.509       3.417       2.309       1.173      1.6154E-03
   2    9.997       8.894       7.779       6.667       5.565       4.476       3.388       2.288       1.162      1.5996E-03
   3    9.997       8.877       7.747       6.622       5.514       4.424       3.344       2.257       1.146      1.5756E-03
   4    9.997       8.864       7.721       6.586       5.471       4.382       3.308       2.231       1.132      1.5563E-03
   5    9.997       8.862       7.717       6.580       5.464       4.375       3.303       2.227       1.131      1.5537E-03
   6    9.997       8.875       7.742       6.615       5.504       4.415       3.338       2.253       1.144      1.5732E-03
   7    9.997       8.901       7.792       6.683       5.583       4.494       3.405       2.302       1.170      1.6110E-03
   8    9.997       8.931       7.851       6.764       5.676       4.586       3.486       2.360       1.201      1.6558E-03
   9    9.997       8.957       7.901       6.834       5.756       4.666       3.554       2.411       1.228      1.6947E-03
  10    9.998       8.972       7.930       6.873       5.802       4.712       3.594       2.439       1.243      1.7169E-03
1
              HEAD IN LAYER   2 AT END OF TIME STEP  76 IN STRESS PERIOD    5
  ---------------------------------------------------------------------------

            1           2           3           4           5           6           7           8           9          10
 ........................................................................................................................
   1    9.997       8.903       7.799       6.695       5.598       4.508       3.415       2.307       1.171      3.2172E-03
   2    9.997       8.893       7.779       6.667       5.565       4.475       3.387       2.287       1.161      3.1879E-03
   3    9.997       8.877       7.748       6.624       5.515       4.425       3.344       2.256       1.145      3.1436E-03
   4    9.997       8.864       7.723       6.588       5.474       4.384       3.310       2.231       1.132      3.1080E-03
   5    9.997       8.862       7.719       6.583       5.468       4.378       3.304       2.228       1.130      3.1034E-03
   6    9.997       8.875       7.744       6.617       5.507       4.417       3.339       2.253       1.143      3.1401E-03
   7    9.997       8.900       7.792       6.684       5.584       4.494       3.405       2.301       1.169      3.2106E-03
   8    9.997       8.930       7.850       6.763       5.675       4.585       3.484       2.358       1.199      3.2941E-03
   9    9.997       8.955       7.899       6.831       5.754       4.663       3.551       2.408       1.225      3.3662E-03
  10    9.997       8.970       7.927       6.870       5.799       4.708       3.590       2.436       1.240      3.4074E-03
1
              HEAD IN LAYER   3 AT END OF TIME STEP  76 IN STRESS PERIOD    5
  ---------------------------------------------------------------------------

            1           2           3           4           5           6           7           8           9          10
 ........................................................................................................................
   1    9.997       8.902       7.798       6.694       5.597       4.506       3.413       2.305       1.169      3.4678E-03
   2    9.997       8.892       7.778       6.667       5.565       4.474       3.386       2.285       1.159      3.4370E-03
   3    9.997       8.877       7.748       6.625       5.516       4.426       3.344       2.255       1.143      3.3906E-03
   4    9.997       8.864       7.724       6.590       5.476       4.386       3.311       2.231       1.131      3.3533E-03
   5    9.997       8.863       7.721       6.585       5.471       4.380       3.306       2.228       1.129      3.3488E-03
   6    9.997       8.875       7.745       6.619       5.510       4.419       3.340       2.253       1.142      3.3877E-03
   7    9.997       8.900       7.793       6.685       5.585       4.495       3.405       2.300       1.168      3.4624E-03
   8    9.997       8.929       7.849       6.763       5.675       4.584       3.482       2.357       1.197      3.5507E-03
   9    9.997       8.954       7.898       6.830       5.752       4.661       3.549       2.405       1.223      3.6271E-03
  10    9.997       8.969       7.925       6.868       5.796       4.705       3.587       2.433       1.238      3.6707E-03
1
              HEAD IN LAYER   4 AT END OF TIME STEP  76 IN STRESS PERIOD    5
  ---------------------------------------------------------------------------

            1           2           3           4           5           6           7           8           9          10
 ........................................................................................................................
   1    9.997       8.902       7.798       6.694       5.596       4.505       3.412       2.304       1.169      3.4920E-03
   2    9.997       8.892       7.778       6.666       5.565       4.474       3.385       2.284       1.158      3.4613E-03
   3    9.997       8.877       7.748       6.625       5.517       4.426       3.344       2.255       1.143      3.4152E-03
   4    9.997       8.864       7.724       6.591       5.478       4.387       3.311       2.231       1.131      3.3782E-03
   5    9.997       8.863       7.721       6.587       5.472       4.382       3.307       2.228       1.129      3.3739E-03
   6    9.997       8.875       7.746       6.620       5.511       4.420       3.340       2.253       1.142      3.4129E-03
   7    9.997       8.900       7.793       6.685       5.586       4.495       3.405       2.300       1.167      3.4874E-03
   8    9.997       8.929       7.849       6.762       5.674       4.584       3.481       2.356       1.197      3.5757E-03
   9    9.997       8.954       7.897       6.829       5.751       4.660       3.547       2.404       1.222      3.6520E-03
  10    9.997       8.968       7.925       6.867       5.794       4.703       3.585       2.431       1.237      3.6956E-03

 HEAD WILL BE SAVED ON UNIT   51 AT END OF TIME STEP   76, STRESS PERIOD    5

 DRAWDOWN WILL BE SAVED ON UNIT   52 AT END OF TIME STEP   76, STRESS PERIOD    5
1
  VOLUMETRIC BUDGET FOR ENTIRE MODEL AT END OF TIME STEP   76, STRESS PERIOD   5
  ------------------------------------------------------------------------------

     CUMULATIVE VOLUMES      L**3       RATES FOR THIS TIME STEP      L**3/T
     ------------------                 ------------------------

           IN:                                      IN:
           ---                                      ---
             STORAGE =      533778.9375               STORAGE =          32.9920
       CONSTANT HEAD =           0.0000         CONSTANT HEAD =           0.0000
               WELLS =           0.0000                 WELLS =           0.0000
     HEAD DEP BOUNDS =      131172.0000       HEAD DEP BOUNDS =         650.4139

            TOTAL IN =      664950.9375              TOTAL IN =         683.4059

          OUT:                                     OUT:
          ----                                     ----
             STORAGE =       15298.1631               STORAGE =          93.5390
       CONSTANT HEAD =           0.0000         CONSTANT HEAD =           0.0000
               WELLS =      100000.0000                 WELLS =           0.0000
     HEAD DEP BOUNDS =      549654.5000       HEAD DEP BOUNDS =         589.8542

           TOTAL OUT =      664952.6875             TOTAL OUT =         683.3932

            IN - OUT =          -1.7500              IN - OUT =       1.2634E-02

 PERCENT DISCREPANCY =          -0.00     PERCENT DISCREPANCY =           0.00






         TIME SUMMARY AT END OF TIME STEP   76 IN STRESS PERIOD    5
                    SECONDS     MINUTES      HOURS       DAYS        YEARS
                    -----------------------------------------------------------
   TIME STEP LENGTH  86400.      1440.0      24.000      1.0000     2.73785E-03
 STRESS PERIOD TIME 6.56640E+06 1.09440E+05  1824.0      76.000     0.20808    
         TOTAL TIME 3.25728E+07 5.42880E+05  9048.0      377.00      1.0322    
1
 
 SOLVING FOR HEAD 

 OUTPUT CONTROL FOR STRESS PERIOD    5   TIME STEP   77
    SAVE HEAD FOR ALL LAYERS
    SAVE DRAWDOWN FOR ALL LAYERS
    SAVE BUDGET
    PRINT HEAD FOR ALL LAYERS
    PRINT BUDGET
 UBDSV1 SAVING "         STORAGE" ON UNIT  53 AT TIME STEP 77, STRESS PERIOD   5
 UBDSV2 SAVING "   CONSTANT HEAD" ON UNIT  53 AT TIME STEP 77, STRESS PERIOD   5
 UBDSV1 SAVING "FLOW RIGHT FACE " ON UNIT  53 AT TIME STEP 77, STRESS PERIOD   5
 UBDSV1 SAVING "FLOW FRONT FACE " ON UNIT  53 AT TIME STEP 77, STRESS PERIOD   5
 UBDSV1 SAVING "FLOW LOWER FACE " ON UNIT  53 AT TIME STEP 77, STRESS PERIOD   5
1
              HEAD IN LAYER   1 AT END OF TIME STEP  77 IN STRESS PERIOD    5
  ---------------------------------------------------------------------------

            1           2           3           4           5           6           7           8           9          10
 ........................................................................................................................
   1    9.997       8.905       7.801       6.697       5.599       4.509       3.416       2.308       1.172      1.6143E-03
   2    9.997       8.894       7.780       6.668       5.566       4.476       3.388       2.288       1.162      1.5989E-03
   3    9.997       8.878       7.749       6.625       5.516       4.426       3.345       2.257       1.146      1.5755E-03
   4    9.997       8.865       7.724       6.589       5.475       4.385       3.311       2.232       1.133      1.5569E-03
   5    9.997       8.864       7.720       6.584       5.469       4.379       3.306       2.229       1.131      1.5545E-03
   6    9.997       8.876       7.745       6.618       5.508       4.419       3.340       2.254       1.144      1.5738E-03
   7    9.997       8.901       7.794       6.685       5.586       4.496       3.406       2.302       1.170      1.6109E-03
   8    9.997       8.931       7.851       6.765       5.677       4.586       3.485       2.360       1.200      1.6550E-03
   9    9.997       8.957       7.900       6.833       5.755       4.665       3.553       2.409       1.227      1.6932E-03
  10    9.998       8.971       7.929       6.872       5.800       4.709       3.591       2.437       1.242      1.7151E-03
1
              HEAD IN LAYER   2 AT END OF TIME STEP  77 IN STRESS PERIOD    5
  ---------------------------------------------------------------------------

            1           2           3           4           5           6           7           8           9          10
 ........................................................................................................................
   1    9.997       8.903       7.799       6.695       5.598       4.507       3.414       2.306       1.171      3.2152E-03
   2    9.997       8.893       7.780       6.668       5.566       4.475       3.387       2.286       1.160      3.1866E-03
   3    9.997       8.878       7.750       6.626       5.518       4.427       3.345       2.256       1.145      3.1436E-03
   4    9.997       8.865       7.725       6.592       5.478       4.388       3.312       2.232       1.132      3.1091E-03
   5    9.997       8.864       7.722       6.587       5.472       4.382       3.307       2.229       1.130      3.1049E-03
   6    9.997       8.877       7.747       6.621       5.511       4.421       3.341       2.254       1.144      3.1411E-03
   7    9.997       8.901       7.794       6.686       5.587       4.496       3.406       2.301       1.169      3.2105E-03
   8    9.997       8.930       7.850       6.764       5.676       4.585       3.483       2.358       1.199      3.2925E-03
   9    9.997       8.955       7.898       6.830       5.753       4.662       3.550       2.406       1.224      3.3635E-03
  10    9.997       8.969       7.926       6.869       5.796       4.705       3.587       2.434       1.239      3.4041E-03
1
              HEAD IN LAYER   3 AT END OF TIME STEP  77 IN STRESS PERIOD    5
  ---------------------------------------------------------------------------

            1           2           3           4           5           6           7           8           9          10
 ........................................................................................................................
   1    9.997       8.902       7.799       6.694       5.597       4.506       3.412       2.304       1.169      3.4657E-03
   2    9.997       8.893       7.779       6.668       5.566       4.475       3.386       2.285       1.159      3.4357E-03
   3    9.997       8.878       7.750       6.627       5.519       4.428       3.345       2.256       1.143      3.3905E-03
   4    9.997       8.866       7.727       6.594       5.480       4.390       3.313       2.232       1.131      3.3544E-03
   5    9.997       8.864       7.724       6.590       5.475       4.385       3.309       2.229       1.130      3.3504E-03
   6    9.997       8.877       7.748       6.623       5.514       4.423       3.342       2.254       1.143      3.3889E-03
   7    9.997       8.901       7.794       6.687       5.588       4.497       3.406       2.301       1.168      3.4622E-03
   8    9.997       8.929       7.849       6.763       5.675       4.584       3.482       2.356       1.197      3.5491E-03
   9    9.997       8.954       7.897       6.829       5.751       4.659       3.547       2.404       1.222      3.6242E-03
  10    9.997       8.968       7.924       6.866       5.794       4.702       3.584       2.431       1.237      3.6672E-03
1
              HEAD IN LAYER   4 AT END OF TIME STEP  77 IN STRESS PERIOD    5
  ---------------------------------------------------------------------------

            1           2           3           4           5           6           7           8           9          10
 ........................................................................................................................
   1    9.997       8.902       7.798       6.694       5.596       4.505       3.411       2.303       1.168      3.4900E-03
   2    9.997       8.892       7.779       6.667       5.566       4.474       3.385       2.284       1.158      3.4601E-03
   3    9.997       8.877       7.750       6.627       5.519       4.428       3.345       2.255       1.143      3.4152E-03
   4    9.997       8.866       7.727       6.595       5.482       4.391       3.313       2.232       1.131      3.3794E-03
   5    9.997       8.864       7.724       6.591       5.477       4.386       3.309       2.229       1.130      3.3755E-03
   6    9.997       8.877       7.748       6.624       5.515       4.424       3.342       2.254       1.142      3.4140E-03
   7    9.997       8.901       7.794       6.688       5.588       4.497       3.406       2.300       1.167      3.4873E-03
   8    9.997       8.929       7.849       6.763       5.675       4.584       3.481       2.355       1.196      3.5741E-03
   9    9.997       8.954       7.896       6.828       5.750       4.658       3.546       2.402       1.221      3.6492E-03
  10    9.997       8.968       7.923       6.865       5.792       4.701       3.583       2.429       1.236      3.6922E-03

 HEAD WILL BE SAVED ON UNIT   51 AT END OF TIME STEP   77, STRESS PERIOD    5

 DRAWDOWN WILL BE SAVED ON UNIT   52 AT END OF TIME STEP   77, STRESS PERIOD    5
1
  VOLUMETRIC BUDGET FOR ENTIRE MODEL AT END OF TIME STEP   77, STRESS PERIOD   5
  ------------------------------------------------------------------------------

     CUMULATIVE VOLUMES      L**3       RATES FOR THIS TIME STEP      L**3/T
     ------------------                 ------------------------

           IN:                                      IN:
           ---                                      ---
             STORAGE =      533810.8125               STORAGE =          31.8692
       CONSTANT HEAD =           0.0000         CONSTANT HEAD =           0.0000
               WELLS =           0.0000                 WELLS =           0.0000
     HEAD DEP BOUNDS =      131822.0781       HEAD DEP BOUNDS =         650.0837

            TOTAL IN =      665632.8750              TOTAL IN =         681.9529

          OUT:                                     OUT:
          ----                                     ----
             STORAGE =       15390.3721               STORAGE =          92.2093
       CONSTANT HEAD =           0.0000         CONSTANT HEAD =           0.0000
               WELLS =      100000.0000                 WELLS =           0.0000
     HEAD DEP BOUNDS =      550244.2500       HEAD DEP BOUNDS =         589.7239

           TOTAL OUT =      665634.6250             TOTAL OUT =         681.9332

            IN - OUT =          -1.7500              IN - OUT =       1.9653E-02

 PERCENT DISCREPANCY =          -0.00     PERCENT DISCREPANCY =           0.00






         TIME SUMMARY AT END OF TIME STEP   77 IN STRESS PERIOD    5
                    SECONDS     MINUTES      HOURS       DAYS        YEARS
                    -----------------------------------------------------------
   TIME STEP LENGTH  86400.      1440.0      24.000      1.0000     2.73785E-03
 STRESS PERIOD TIME 6.65280E+06 1.10880E+05  1848.0      77.000     0.21081    
         TOTAL TIME 3.26592E+07 5.44320E+05  9072.0      378.00      1.0349    
1
 
 SOLVING FOR HEAD 

 OUTPUT CONTROL FOR STRESS PERIOD    5   TIME STEP   78
    SAVE HEAD FOR ALL LAYERS
    SAVE DRAWDOWN FOR ALL LAYERS
    SAVE BUDGET
    PRINT HEAD FOR ALL LAYERS
    PRINT BUDGET
 UBDSV1 SAVING "         STORAGE" ON UNIT  53 AT TIME STEP 78, STRESS PERIOD   5
 UBDSV2 SAVING "   CONSTANT HEAD" ON UNIT  53 AT TIME STEP 78, STRESS PERIOD   5
 UBDSV1 SAVING "FLOW RIGHT FACE " ON UNIT  53 AT TIME STEP 78, STRESS PERIOD   5
 UBDSV1 SAVING "FLOW FRONT FACE " ON UNIT  53 AT TIME STEP 78, STRESS PERIOD   5
 UBDSV1 SAVING "FLOW LOWER FACE " ON UNIT  53 AT TIME STEP 78, STRESS PERIOD   5
1
              HEAD IN LAYER   1 AT END OF TIME STEP  78 IN STRESS PERIOD    5
  ---------------------------------------------------------------------------

            1           2           3           4           5           6           7           8           9          10
 ........................................................................................................................
   1    9.997       8.905       7.801       6.697       5.599       4.508       3.415       2.307       1.172      1.6133E-03
   2    9.997       8.894       7.781       6.669       5.567       4.476       3.388       2.287       1.161      1.5983E-03
   3    9.997       8.879       7.751       6.627       5.519       4.428       3.347       2.257       1.146      1.5755E-03
   4    9.997       8.867       7.727       6.593       5.479       4.389       3.313       2.233       1.133      1.5575E-03
   5    9.997       8.865       7.723       6.588       5.473       4.383       3.308       2.230       1.132      1.5553E-03
   6    9.997       8.878       7.748       6.622       5.512       4.422       3.342       2.255       1.145      1.5743E-03
   7    9.997       8.902       7.795       6.688       5.588       4.497       3.407       2.303       1.170      1.6108E-03
   8    9.997       8.931       7.851       6.765       5.677       4.586       3.484       2.359       1.200      1.6542E-03
   9    9.997       8.956       7.900       6.832       5.754       4.663       3.551       2.407       1.226      1.6917E-03
  10    9.998       8.971       7.927       6.870       5.798       4.707       3.589       2.435       1.240      1.7133E-03
1
              HEAD IN LAYER   2 AT END OF TIME STEP  78 IN STRESS PERIOD    5
  ---------------------------------------------------------------------------

            1           2           3           4           5           6           7           8           9          10
 ........................................................................................................................
   1    9.997       8.903       7.800       6.696       5.598       4.506       3.413       2.305       1.170      3.2133E-03
   2    9.997       8.894       7.780       6.669       5.567       4.476       3.387       2.286       1.160      3.1855E-03
   3    9.997       8.879       7.751       6.628       5.520       4.429       3.347       2.257       1.145      3.1436E-03
   4    9.997       8.867       7.728       6.596       5.482       4.391       3.314       2.233       1.132      3.1101E-03
   5    9.997       8.865       7.725       6.591       5.477       4.386       3.310       2.231       1.131      3.1064E-03
   6    9.997       8.878       7.749       6.625       5.515       4.424       3.343       2.255       1.144      3.1422E-03
   7    9.997       8.902       7.796       6.689       5.589       4.498       3.407       2.302       1.169      3.2104E-03
   8    9.997       8.930       7.850       6.764       5.676       4.585       3.483       2.357       1.198      3.2911E-03
   9    9.997       8.955       7.898       6.830       5.751       4.660       3.548       2.405       1.223      3.3609E-03
  10    9.997       8.969       7.925       6.867       5.794       4.703       3.585       2.432       1.238      3.4008E-03
1
              HEAD IN LAYER   3 AT END OF TIME STEP  78 IN STRESS PERIOD    5
  ---------------------------------------------------------------------------

            1           2           3           4           5           6           7           8           9          10
 ........................................................................................................................
   1    9.997       8.903       7.799       6.695       5.597       4.505       3.411       2.303       1.168      3.4638E-03
   2    9.997       8.893       7.780       6.669       5.567       4.475       3.386       2.284       1.158      3.4345E-03
   3    9.997       8.878       7.752       6.629       5.521       4.430       3.346       2.256       1.143      3.3906E-03
   4    9.997       8.867       7.729       6.598       5.484       4.393       3.315       2.233       1.132      3.3556E-03
   5    9.997       8.866       7.727       6.594       5.480       4.388       3.311       2.231       1.130      3.3520E-03
   6    9.997       8.878       7.750       6.626       5.517       4.426       3.344       2.255       1.143      3.3900E-03
   7    9.997       8.902       7.796       6.689       5.590       4.498       3.407       2.301       1.168      3.4622E-03
   8    9.997       8.930       7.850       6.764       5.675       4.584       3.481       2.355       1.196      3.5476E-03
   9    9.997       8.954       7.896       6.828       5.749       4.658       3.545       2.402       1.221      3.6215E-03
  10    9.997       8.968       7.923       6.865       5.792       4.700       3.582       2.429       1.236      3.6638E-03
1
              HEAD IN LAYER   4 AT END OF TIME STEP  78 IN STRESS PERIOD    5
  ---------------------------------------------------------------------------

            1           2           3           4           5           6           7           8           9          10
 ........................................................................................................................
   1    9.997       8.902       7.798       6.694       5.596       4.504       3.411       2.302       1.167      3.4881E-03
   2    9.997       8.893       7.780       6.668       5.566       4.475       3.385       2.283       1.158      3.4589E-03
   3    9.997       8.878       7.752       6.630       5.522       4.430       3.346       2.256       1.143      3.4153E-03
   4    9.997       8.867       7.730       6.599       5.486       4.394       3.316       2.233       1.131      3.3805E-03
   5    9.997       8.866       7.727       6.595       5.481       4.390       3.312       2.231       1.130      3.3771E-03
   6    9.997       8.878       7.751       6.627       5.518       4.427       3.345       2.255       1.143      3.4152E-03
   7    9.997       8.901       7.796       6.690       5.590       4.499       3.407       2.300       1.167      3.4872E-03
   8    9.997       8.929       7.849       6.763       5.675       4.584       3.480       2.354       1.196      3.5726E-03
   9    9.997       8.953       7.896       6.827       5.748       4.657       3.544       2.401       1.220      3.6464E-03
  10    9.997       8.967       7.922       6.864       5.790       4.698       3.580       2.427       1.234      3.6887E-03

 HEAD WILL BE SAVED ON UNIT   51 AT END OF TIME STEP   78, STRESS PERIOD    5

 DRAWDOWN WILL BE SAVED ON UNIT   52 AT END OF TIME STEP   78, STRESS PERIOD    5
1
  VOLUMETRIC BUDGET FOR ENTIRE MODEL AT END OF TIME STEP   78, STRESS PERIOD   5
  ------------------------------------------------------------------------------

     CUMULATIVE VOLUMES      L**3       RATES FOR THIS TIME STEP      L**3/T
     ------------------                 ------------------------

           IN:                                      IN:
           ---                                      ---
             STORAGE =      533841.5625               STORAGE =          30.7777
       CONSTANT HEAD =           0.0000         CONSTANT HEAD =           0.0000
               WELLS =           0.0000                 WELLS =           0.0000
     HEAD DEP BOUNDS =      132471.8438       HEAD DEP BOUNDS =         649.7587

            TOTAL IN =      666313.3750              TOTAL IN =         680.5364

          OUT:                                     OUT:
          ----                                     ----
             STORAGE =       15481.2891               STORAGE =          90.9165
       CONSTANT HEAD =           0.0000         CONSTANT HEAD =           0.0000
               WELLS =      100000.0000                 WELLS =           0.0000
     HEAD DEP BOUNDS =      550833.8750       HEAD DEP BOUNDS =         589.6016

           TOTAL OUT =      666315.1875             TOTAL OUT =         680.5181

            IN - OUT =          -1.8125              IN - OUT =       1.8372E-02

 PERCENT DISCREPANCY =          -0.00     PERCENT DISCREPANCY =           0.00






         TIME SUMMARY AT END OF TIME STEP   78 IN STRESS PERIOD    5
                    SECONDS     MINUTES      HOURS       DAYS        YEARS
                    -----------------------------------------------------------
   TIME STEP LENGTH  86400.      1440.0      24.000      1.0000     2.73785E-03
 STRESS PERIOD TIME 6.73920E+06 1.12320E+05  1872.0      78.000     0.21355    
         TOTAL TIME 3.27456E+07 5.45760E+05  9096.0      379.00      1.0376    
1
 
 SOLVING FOR HEAD 

 OUTPUT CONTROL FOR STRESS PERIOD    5   TIME STEP   79
    SAVE HEAD FOR ALL LAYERS
    SAVE DRAWDOWN FOR ALL LAYERS
    SAVE BUDGET
    PRINT HEAD FOR ALL LAYERS
    PRINT BUDGET
 UBDSV1 SAVING "         STORAGE" ON UNIT  53 AT TIME STEP 79, STRESS PERIOD   5
 UBDSV2 SAVING "   CONSTANT HEAD" ON UNIT  53 AT TIME STEP 79, STRESS PERIOD   5
 UBDSV1 SAVING "FLOW RIGHT FACE " ON UNIT  53 AT TIME STEP 79, STRESS PERIOD   5
 UBDSV1 SAVING "FLOW FRONT FACE " ON UNIT  53 AT TIME STEP 79, STRESS PERIOD   5
 UBDSV1 SAVING "FLOW LOWER FACE " ON UNIT  53 AT TIME STEP 79, STRESS PERIOD   5
1
              HEAD IN LAYER   1 AT END OF TIME STEP  79 IN STRESS PERIOD    5
  ---------------------------------------------------------------------------

            1           2           3           4           5           6           7           8           9          10
 ........................................................................................................................
   1    9.997       8.905       7.801       6.697       5.599       4.508       3.414       2.306       1.171      1.6123E-03
   2    9.997       8.895       7.782       6.670       5.568       4.477       3.388       2.287       1.161      1.5977E-03
   3    9.997       8.880       7.753       6.630       5.521       4.430       3.348       2.258       1.146      1.5755E-03
   4    9.997       8.868       7.729       6.597       5.483       4.392       3.315       2.235       1.134      1.5580E-03
   5    9.997       8.867       7.726       6.592       5.478       4.387       3.311       2.232       1.132      1.5561E-03
   6    9.997       8.879       7.750       6.626       5.516       4.425       3.344       2.256       1.145      1.5749E-03
   7    9.997       8.903       7.797       6.690       5.590       4.499       3.408       2.303       1.170      1.6108E-03
   8    9.997       8.931       7.852       6.765       5.677       4.586       3.484       2.358       1.199      1.6535E-03
   9    9.997       8.956       7.899       6.831       5.753       4.661       3.549       2.406       1.225      1.6904E-03
  10    9.998       8.970       7.926       6.868       5.796       4.704       3.586       2.433       1.239      1.7117E-03
1
              HEAD IN LAYER   2 AT END OF TIME STEP  79 IN STRESS PERIOD    5
  ---------------------------------------------------------------------------

            1           2           3           4           5           6           7           8           9          10
 ........................................................................................................................
   1    9.997       8.904       7.800       6.696       5.598       4.506       3.412       2.304       1.169      3.2115E-03
   2    9.997       8.894       7.781       6.670       5.568       4.476       3.387       2.285       1.159      3.1844E-03
   3    9.997       8.880       7.753       6.631       5.523       4.431       3.348       2.257       1.145      3.1436E-03
   4    9.997       8.868       7.731       6.599       5.486       4.395       3.316       2.235       1.133      3.1112E-03
   5    9.997       8.867       7.728       6.595       5.481       4.390       3.313       2.232       1.132      3.1080E-03
   6    9.997       8.879       7.752       6.628       5.519       4.428       3.346       2.256       1.144      3.1433E-03
   7    9.997       8.903       7.797       6.691       5.591       4.500       3.408       2.302       1.169      3.2103E-03
   8    9.997       8.930       7.851       6.765       5.677       4.585       3.482       2.356       1.198      3.2896E-03
   9    9.997       8.954       7.897       6.829       5.750       4.659       3.546       2.403       1.222      3.3583E-03
  10    9.997       8.968       7.924       6.865       5.792       4.701       3.583       2.430       1.237      3.3977E-03
1
              HEAD IN LAYER   3 AT END OF TIME STEP  79 IN STRESS PERIOD    5
  ---------------------------------------------------------------------------

            1           2           3           4           5           6           7           8           9          10
 ........................................................................................................................
   1    9.997       8.903       7.799       6.695       5.597       4.505       3.411       2.302       1.168      3.4619E-03
   2    9.997       8.893       7.781       6.670       5.568       4.476       3.385       2.284       1.158      3.4334E-03
   3    9.997       8.879       7.753       6.632       5.524       4.432       3.348       2.256       1.143      3.3907E-03
   4    9.997       8.868       7.732       6.601       5.488       4.396       3.317       2.234       1.132      3.3568E-03
   5    9.997       8.867       7.729       6.598       5.484       4.392       3.314       2.232       1.131      3.3537E-03
   6    9.997       8.879       7.753       6.630       5.521       4.429       3.346       2.256       1.144      3.3912E-03
   7    9.997       8.902       7.797       6.691       5.592       4.500       3.408       2.301       1.168      3.4621E-03
   8    9.997       8.930       7.850       6.764       5.676       4.584       3.481       2.354       1.196      3.5461E-03
   9    9.997       8.953       7.896       6.827       5.748       4.656       3.544       2.401       1.220      3.6188E-03
  10    9.997       8.967       7.922       6.863       5.790       4.698       3.580       2.427       1.234      3.6605E-03
1
              HEAD IN LAYER   4 AT END OF TIME STEP  79 IN STRESS PERIOD    5
  ---------------------------------------------------------------------------

            1           2           3           4           5           6           7           8           9          10
 ........................................................................................................................
   1    9.997       8.902       7.798       6.694       5.596       4.504       3.410       2.301       1.167      3.4862E-03
   2    9.997       8.893       7.781       6.669       5.567       4.475       3.385       2.283       1.157      3.4579E-03
   3    9.997       8.879       7.754       6.632       5.524       4.432       3.348       2.256       1.143      3.4154E-03
   4    9.997       8.868       7.732       6.602       5.489       4.397       3.318       2.234       1.132      3.3817E-03
   5    9.997       8.867       7.730       6.599       5.485       4.393       3.315       2.232       1.131      3.3788E-03
   6    9.997       8.879       7.753       6.631       5.522       4.430       3.347       2.256       1.143      3.4163E-03
   7    9.997       8.902       7.797       6.692       5.592       4.500       3.408       2.301       1.167      3.4872E-03
   8    9.997       8.929       7.850       6.764       5.675       4.584       3.480       2.354       1.195      3.5711E-03
   9    9.997       8.953       7.895       6.826       5.747       4.655       3.542       2.399       1.219      3.6437E-03
  10    9.997       8.966       7.921       6.862       5.788       4.696       3.578       2.426       1.233      3.6854E-03

 HEAD WILL BE SAVED ON UNIT   51 AT END OF TIME STEP   79, STRESS PERIOD    5

 DRAWDOWN WILL BE SAVED ON UNIT   52 AT END OF TIME STEP   79, STRESS PERIOD    5
1
  VOLUMETRIC BUDGET FOR ENTIRE MODEL AT END OF TIME STEP   79, STRESS PERIOD   5
  ------------------------------------------------------------------------------

     CUMULATIVE VOLUMES      L**3       RATES FOR THIS TIME STEP      L**3/T
     ------------------                 ------------------------

           IN:                                      IN:
           ---                                      ---
             STORAGE =      533871.3125               STORAGE =          29.7236
       CONSTANT HEAD =           0.0000         CONSTANT HEAD =           0.0000
               WELLS =           0.0000                 WELLS =           0.0000
     HEAD DEP BOUNDS =      133121.2656       HEAD DEP BOUNDS =         649.4219

            TOTAL IN =      666992.5625              TOTAL IN =         679.1454

          OUT:                                     OUT:
          ----                                     ----
             STORAGE =       15570.9326               STORAGE =          89.6435
       CONSTANT HEAD =           0.0000         CONSTANT HEAD =           0.0000
               WELLS =      100000.0000                 WELLS =           0.0000
     HEAD DEP BOUNDS =      551423.3750       HEAD DEP BOUNDS =         589.4884

           TOTAL OUT =      666994.3125             TOTAL OUT =         679.1319

            IN - OUT =          -1.7500              IN - OUT =       1.3550E-02

 PERCENT DISCREPANCY =          -0.00     PERCENT DISCREPANCY =           0.00






         TIME SUMMARY AT END OF TIME STEP   79 IN STRESS PERIOD    5
                    SECONDS     MINUTES      HOURS       DAYS        YEARS
                    -----------------------------------------------------------
   TIME STEP LENGTH  86400.      1440.0      24.000      1.0000     2.73785E-03
 STRESS PERIOD TIME 6.82560E+06 1.13760E+05  1896.0      79.000     0.21629    
         TOTAL TIME 3.28320E+07 5.47200E+05  9120.0      380.00      1.0404    
1
 
 SOLVING FOR HEAD 

 OUTPUT CONTROL FOR STRESS PERIOD    5   TIME STEP   80
    SAVE HEAD FOR ALL LAYERS
    SAVE DRAWDOWN FOR ALL LAYERS
    SAVE BUDGET
    PRINT HEAD FOR ALL LAYERS
    PRINT BUDGET
 UBDSV1 SAVING "         STORAGE" ON UNIT  53 AT TIME STEP 80, STRESS PERIOD   5
 UBDSV2 SAVING "   CONSTANT HEAD" ON UNIT  53 AT TIME STEP 80, STRESS PERIOD   5
 UBDSV1 SAVING "FLOW RIGHT FACE " ON UNIT  53 AT TIME STEP 80, STRESS PERIOD   5
 UBDSV1 SAVING "FLOW FRONT FACE " ON UNIT  53 AT TIME STEP 80, STRESS PERIOD   5
 UBDSV1 SAVING "FLOW LOWER FACE " ON UNIT  53 AT TIME STEP 80, STRESS PERIOD   5
1
              HEAD IN LAYER   1 AT END OF TIME STEP  80 IN STRESS PERIOD    5
  ---------------------------------------------------------------------------

            1           2           3           4           5           6           7           8           9          10
 ........................................................................................................................
   1    9.997       8.905       7.801       6.697       5.599       4.507       3.414       2.305       1.170      1.6114E-03
   2    9.997       8.895       7.782       6.671       5.569       4.477       3.388       2.286       1.161      1.5971E-03
   3    9.997       8.881       7.754       6.632       5.524       4.432       3.349       2.258       1.146      1.5756E-03
   4    9.997       8.869       7.732       6.600       5.487       4.396       3.318       2.236       1.134      1.5587E-03
   5    9.997       8.868       7.729       6.597       5.482       4.391       3.314       2.233       1.133      1.5570E-03
   6    9.997       8.880       7.753       6.629       5.520       4.429       3.347       2.257       1.146      1.5754E-03
   7    9.997       8.904       7.798       6.692       5.592       4.501       3.409       2.303       1.170      1.6107E-03
   8    9.997       8.932       7.852       6.766       5.678       4.586       3.483       2.357       1.199      1.6527E-03
   9    9.997       8.956       7.898       6.830       5.751       4.660       3.547       2.404       1.224      1.6891E-03
  10    9.998       8.970       7.925       6.867       5.794       4.702       3.584       2.431       1.238      1.7100E-03
1
              HEAD IN LAYER   2 AT END OF TIME STEP  80 IN STRESS PERIOD    5
  ---------------------------------------------------------------------------

            1           2           3           4           5           6           7           8           9          10
 ........................................................................................................................
   1    9.997       8.904       7.800       6.696       5.598       4.506       3.412       2.303       1.169      3.2098E-03
   2    9.997       8.894       7.782       6.671       5.569       4.477       3.387       2.285       1.159      3.1834E-03
   3    9.997       8.880       7.755       6.633       5.525       4.433       3.349       2.257       1.145      3.1437E-03
   4    9.997       8.869       7.733       6.603       5.490       4.398       3.319       2.236       1.133      3.1123E-03
   5    9.997       8.868       7.731       6.599       5.486       4.394       3.315       2.234       1.132      3.1095E-03
   6    9.997       8.880       7.754       6.632       5.523       4.431       3.348       2.257       1.145      3.1443E-03
   7    9.997       8.903       7.799       6.693       5.593       4.502       3.409       2.302       1.169      3.2102E-03
   8    9.997       8.931       7.851       6.765       5.677       4.585       3.482       2.356       1.197      3.2883E-03
   9    9.997       8.954       7.897       6.828       5.749       4.657       3.545       2.402       1.222      3.3558E-03
  10    9.997       8.968       7.923       6.864       5.790       4.698       3.580       2.428       1.236      3.3946E-03
1
              HEAD IN LAYER   3 AT END OF TIME STEP  80 IN STRESS PERIOD    5
  ---------------------------------------------------------------------------

            1           2           3           4           5           6           7           8           9          10
 ........................................................................................................................
   1    9.997       8.903       7.799       6.695       5.597       4.504       3.410       2.301       1.167      3.4601E-03
   2    9.997       8.894       7.782       6.671       5.568       4.476       3.385       2.283       1.158      3.4324E-03
   3    9.997       8.880       7.755       6.634       5.526       4.434       3.349       2.257       1.144      3.3908E-03
   4    9.997       8.870       7.734       6.605       5.492       4.400       3.320       2.236       1.132      3.3580E-03
   5    9.997       8.869       7.732       6.602       5.488       4.396       3.317       2.234       1.132      3.3553E-03
   6    9.997       8.881       7.755       6.633       5.525       4.433       3.349       2.257       1.144      3.3923E-03
   7    9.997       8.903       7.799       6.693       5.594       4.502       3.409       2.301       1.168      3.4621E-03
   8    9.997       8.930       7.851       6.765       5.676       4.584       3.480       2.354       1.195      3.5446E-03
   9    9.997       8.953       7.895       6.826       5.747       4.655       3.542       2.399       1.219      3.6162E-03
  10    9.997       8.967       7.921       6.862       5.788       4.695       3.577       2.425       1.233      3.6572E-03
1
              HEAD IN LAYER   4 AT END OF TIME STEP  80 IN STRESS PERIOD    5
  ---------------------------------------------------------------------------

            1           2           3           4           5           6           7           8           9          10
 ........................................................................................................................
   1    9.997       8.902       7.799       6.695       5.596       4.504       3.409       2.300       1.166      3.4844E-03
   2    9.997       8.893       7.781       6.670       5.568       4.476       3.385       2.283       1.157      3.4568E-03
   3    9.997       8.880       7.755       6.634       5.526       4.434       3.349       2.256       1.143      3.4155E-03
   4    9.997       8.870       7.735       6.606       5.493       4.401       3.320       2.236       1.132      3.3830E-03
   5    9.997       8.869       7.733       6.603       5.490       4.397       3.317       2.234       1.131      3.3804E-03
   6    9.997       8.881       7.756       6.634       5.526       4.433       3.349       2.257       1.144      3.4175E-03
   7    9.997       8.903       7.799       6.694       5.595       4.502       3.409       2.301       1.167      3.4872E-03
   8    9.997       8.930       7.850       6.764       5.676       4.584       3.480       2.353       1.195      3.5697E-03
   9    9.997       8.953       7.895       6.825       5.746       4.654       3.541       2.398       1.218      3.6411E-03
  10    9.997       8.966       7.920       6.860       5.786       4.694       3.576       2.424       1.232      3.6821E-03

 HEAD WILL BE SAVED ON UNIT   51 AT END OF TIME STEP   80, STRESS PERIOD    5

 DRAWDOWN WILL BE SAVED ON UNIT   52 AT END OF TIME STEP   80, STRESS PERIOD    5
1
  VOLUMETRIC BUDGET FOR ENTIRE MODEL AT END OF TIME STEP   80, STRESS PERIOD   5
  ------------------------------------------------------------------------------

     CUMULATIVE VOLUMES      L**3       RATES FOR THIS TIME STEP      L**3/T
     ------------------                 ------------------------

           IN:                                      IN:
           ---                                      ---
             STORAGE =      533900.0000               STORAGE =          28.7038
       CONSTANT HEAD =           0.0000         CONSTANT HEAD =           0.0000
               WELLS =           0.0000                 WELLS =           0.0000
     HEAD DEP BOUNDS =      133770.3594       HEAD DEP BOUNDS =         649.0935

            TOTAL IN =      667670.3750              TOTAL IN =         677.7973

          OUT:                                     OUT:
          ----                                     ----
             STORAGE =       15659.3389               STORAGE =          88.4059
       CONSTANT HEAD =           0.0000         CONSTANT HEAD =           0.0000
               WELLS =      100000.0000                 WELLS =           0.0000
     HEAD DEP BOUNDS =      552012.7500       HEAD DEP BOUNDS =         589.3809

           TOTAL OUT =      667672.0625             TOTAL OUT =         677.7867

            IN - OUT =          -1.6875              IN - OUT =       1.0559E-02

 PERCENT DISCREPANCY =          -0.00     PERCENT DISCREPANCY =           0.00






         TIME SUMMARY AT END OF TIME STEP   80 IN STRESS PERIOD    5
                    SECONDS     MINUTES      HOURS       DAYS        YEARS
                    -----------------------------------------------------------
   TIME STEP LENGTH  86400.      1440.0      24.000      1.0000     2.73785E-03
 STRESS PERIOD TIME 6.91200E+06 1.15200E+05  1920.0      80.000     0.21903    
         TOTAL TIME 3.29184E+07 5.48640E+05  9144.0      381.00      1.0431    
1
 
 SOLVING FOR HEAD 

 OUTPUT CONTROL FOR STRESS PERIOD    5   TIME STEP   81
    SAVE HEAD FOR ALL LAYERS
    SAVE DRAWDOWN FOR ALL LAYERS
    SAVE BUDGET
    PRINT HEAD FOR ALL LAYERS
    PRINT BUDGET
 UBDSV1 SAVING "         STORAGE" ON UNIT  53 AT TIME STEP 81, STRESS PERIOD   5
 UBDSV2 SAVING "   CONSTANT HEAD" ON UNIT  53 AT TIME STEP 81, STRESS PERIOD   5
 UBDSV1 SAVING "FLOW RIGHT FACE " ON UNIT  53 AT TIME STEP 81, STRESS PERIOD   5
 UBDSV1 SAVING "FLOW FRONT FACE " ON UNIT  53 AT TIME STEP 81, STRESS PERIOD   5
 UBDSV1 SAVING "FLOW LOWER FACE " ON UNIT  53 AT TIME STEP 81, STRESS PERIOD   5
1
              HEAD IN LAYER   1 AT END OF TIME STEP  81 IN STRESS PERIOD    5
  ---------------------------------------------------------------------------

            1           2           3           4           5           6           7           8           9          10
 ........................................................................................................................
   1    9.997       8.905       7.801       6.697       5.599       4.507       3.413       2.304       1.170      1.6104E-03
   2    9.997       8.896       7.783       6.672       5.570       4.478       3.388       2.286       1.160      1.5966E-03
   3    9.997       8.882       7.756       6.634       5.526       4.434       3.350       2.259       1.146      1.5756E-03
   4    9.997       8.871       7.734       6.604       5.491       4.399       3.320       2.237       1.134      1.5592E-03
   5    9.997       8.870       7.732       6.601       5.487       4.395       3.317       2.235       1.133      1.5578E-03
   6    9.997       8.882       7.756       6.633       5.524       4.432       3.349       2.258       1.146      1.5760E-03
   7    9.997       8.905       7.800       6.694       5.595       4.503       3.410       2.304       1.170      1.6107E-03
   8    9.997       8.932       7.852       6.766       5.678       4.586       3.483       2.357       1.198      1.6520E-03
   9    9.997       8.955       7.898       6.829       5.750       4.658       3.546       2.403       1.223      1.6877E-03
  10    9.998       8.969       7.924       6.865       5.792       4.700       3.582       2.429       1.237      1.7083E-03
1
              HEAD IN LAYER   2 AT END OF TIME STEP  81 IN STRESS PERIOD    5
  ---------------------------------------------------------------------------

            1           2           3           4           5           6           7           8           9          10
 ........................................................................................................................
   1    9.997       8.904       7.800       6.696       5.598       4.505       3.411       2.302       1.168      3.2081E-03
   2    9.997       8.895       7.783       6.672       5.570       4.477       3.387       2.284       1.159      3.1824E-03
   3    9.997       8.881       7.757       6.635       5.527       4.435       3.350       2.258       1.145      3.1438E-03
   4    9.997       8.871       7.736       6.606       5.494       4.401       3.321       2.237       1.134      3.1135E-03
   5    9.997       8.870       7.734       6.603       5.490       4.398       3.318       2.235       1.133      3.1110E-03
   6    9.997       8.882       7.757       6.635       5.526       4.434       3.350       2.258       1.145      3.1454E-03
   7    9.997       8.904       7.800       6.695       5.596       4.503       3.410       2.303       1.169      3.2102E-03
   8    9.997       8.931       7.852       6.766       5.677       4.585       3.481       2.355       1.197      3.2869E-03
   9    9.997       8.954       7.896       6.827       5.748       4.656       3.543       2.400       1.221      3.3534E-03
  10    9.997       8.967       7.922       6.862       5.788       4.696       3.578       2.426       1.234      3.3915E-03
1
              HEAD IN LAYER   3 AT END OF TIME STEP  81 IN STRESS PERIOD    5
  ---------------------------------------------------------------------------

            1           2           3           4           5           6           7           8           9          10
 ........................................................................................................................
   1    9.997       8.903       7.799       6.695       5.597       4.504       3.409       2.300       1.166      3.4584E-03
   2    9.997       8.894       7.782       6.672       5.569       4.477       3.385       2.283       1.157      3.4314E-03
   3    9.997       8.881       7.757       6.636       5.528       4.436       3.350       2.257       1.144      3.3910E-03
   4    9.997       8.871       7.737       6.608       5.496       4.403       3.322       2.237       1.133      3.3592E-03
   5    9.997       8.870       7.735       6.605       5.492       4.400       3.319       2.235       1.132      3.3569E-03
   6    9.997       8.882       7.758       6.637       5.528       4.436       3.351       2.258       1.144      3.3935E-03
   7    9.997       8.904       7.800       6.695       5.596       4.504       3.410       2.302       1.168      3.4621E-03
   8    9.997       8.930       7.851       6.765       5.677       4.584       3.480       2.353       1.195      3.5433E-03
   9    9.997       8.953       7.895       6.825       5.746       4.653       3.540       2.398       1.219      3.6136E-03
  10    9.997       8.966       7.920       6.860       5.786       4.693       3.575       2.423       1.232      3.6540E-03
1
              HEAD IN LAYER   4 AT END OF TIME STEP  81 IN STRESS PERIOD    5
  ---------------------------------------------------------------------------

            1           2           3           4           5           6           7           8           9          10
 ........................................................................................................................
   1    9.997       8.903       7.799       6.695       5.596       4.503       3.408       2.299       1.165      3.4827E-03
   2    9.997       8.894       7.782       6.671       5.569       4.476       3.385       2.282       1.157      3.4558E-03
   3    9.997       8.881       7.757       6.637       5.529       4.436       3.350       2.257       1.143      3.4157E-03
   4    9.997       8.871       7.737       6.609       5.497       4.404       3.322       2.237       1.133      3.3842E-03
   5    9.997       8.870       7.736       6.606       5.494       4.401       3.320       2.235       1.132      3.3821E-03
   6    9.997       8.882       7.758       6.637       5.529       4.436       3.351       2.258       1.144      3.4187E-03
   7    9.997       8.904       7.800       6.696       5.597       4.504       3.410       2.301       1.167      3.4872E-03
   8    9.997       8.930       7.851       6.765       5.676       4.584       3.479       2.352       1.194      3.5683E-03
   9    9.997       8.952       7.894       6.825       5.745       4.652       3.539       2.396       1.218      3.6386E-03
  10    9.997       8.965       7.919       6.859       5.785       4.692       3.574       2.422       1.231      3.6789E-03

 HEAD WILL BE SAVED ON UNIT   51 AT END OF TIME STEP   81, STRESS PERIOD    5

 DRAWDOWN WILL BE SAVED ON UNIT   52 AT END OF TIME STEP   81, STRESS PERIOD    5
1
  VOLUMETRIC BUDGET FOR ENTIRE MODEL AT END OF TIME STEP   81, STRESS PERIOD   5
  ------------------------------------------------------------------------------

     CUMULATIVE VOLUMES      L**3       RATES FOR THIS TIME STEP      L**3/T
     ------------------                 ------------------------

           IN:                                      IN:
           ---                                      ---
             STORAGE =      533927.6875               STORAGE =          27.7124
       CONSTANT HEAD =           0.0000         CONSTANT HEAD =           0.0000
               WELLS =           0.0000                 WELLS =           0.0000
     HEAD DEP BOUNDS =      134419.1250       HEAD DEP BOUNDS =         648.7592

            TOTAL IN =      668346.8125              TOTAL IN =         676.4716

          OUT:                                     OUT:
          ----                                     ----
             STORAGE =       15746.5293               STORAGE =          87.1907
       CONSTANT HEAD =           0.0000         CONSTANT HEAD =           0.0000
               WELLS =      100000.0000                 WELLS =           0.0000
     HEAD DEP BOUNDS =      552602.0000       HEAD DEP BOUNDS =         589.2808

           TOTAL OUT =      668348.5000             TOTAL OUT =         676.4716

            IN - OUT =          -1.6875              IN - OUT =           0.0000

 PERCENT DISCREPANCY =          -0.00     PERCENT DISCREPANCY =           0.00






         TIME SUMMARY AT END OF TIME STEP   81 IN STRESS PERIOD    5
                    SECONDS     MINUTES      HOURS       DAYS        YEARS
                    -----------------------------------------------------------
   TIME STEP LENGTH  86400.      1440.0      24.000      1.0000     2.73785E-03
 STRESS PERIOD TIME 6.99840E+06 1.16640E+05  1944.0      81.000     0.22177    
         TOTAL TIME 3.30048E+07 5.50080E+05  9168.0      382.00      1.0459    
1
 
 SOLVING FOR HEAD 

 OUTPUT CONTROL FOR STRESS PERIOD    5   TIME STEP   82
    SAVE HEAD FOR ALL LAYERS
    SAVE DRAWDOWN FOR ALL LAYERS
    SAVE BUDGET
    PRINT HEAD FOR ALL LAYERS
    PRINT BUDGET
 UBDSV1 SAVING "         STORAGE" ON UNIT  53 AT TIME STEP 82, STRESS PERIOD   5
 UBDSV2 SAVING "   CONSTANT HEAD" ON UNIT  53 AT TIME STEP 82, STRESS PERIOD   5
 UBDSV1 SAVING "FLOW RIGHT FACE " ON UNIT  53 AT TIME STEP 82, STRESS PERIOD   5
 UBDSV1 SAVING "FLOW FRONT FACE " ON UNIT  53 AT TIME STEP 82, STRESS PERIOD   5
 UBDSV1 SAVING "FLOW LOWER FACE " ON UNIT  53 AT TIME STEP 82, STRESS PERIOD   5
1
              HEAD IN LAYER   1 AT END OF TIME STEP  82 IN STRESS PERIOD    5
  ---------------------------------------------------------------------------

            1           2           3           4           5           6           7           8           9          10
 ........................................................................................................................
   1    9.997       8.905       7.801       6.697       5.599       4.506       3.412       2.303       1.169      1.6096E-03
   2    9.997       8.896       7.784       6.673       5.571       4.478       3.388       2.286       1.160      1.5960E-03
   3    9.997       8.883       7.758       6.636       5.529       4.436       3.351       2.259       1.146      1.5757E-03
   4    9.997       8.872       7.737       6.607       5.495       4.402       3.322       2.238       1.135      1.5598E-03
   5    9.997       8.871       7.735       6.604       5.491       4.399       3.319       2.236       1.134      1.5585E-03
   6    9.997       8.883       7.758       6.636       5.528       4.435       3.351       2.260       1.146      1.5767E-03
   7    9.997       8.905       7.801       6.696       5.597       4.504       3.411       2.304       1.170      1.6107E-03
   8    9.997       8.932       7.853       6.767       5.678       4.586       3.483       2.356       1.198      1.6512E-03
   9    9.997       8.955       7.897       6.828       5.749       4.657       3.544       2.401       1.222      1.6866E-03
  10    9.998       8.968       7.923       6.863       5.790       4.697       3.579       2.427       1.236      1.7066E-03
1
              HEAD IN LAYER   2 AT END OF TIME STEP  82 IN STRESS PERIOD    5
  ---------------------------------------------------------------------------

            1           2           3           4           5           6           7           8           9          10
 ........................................................................................................................
   1    9.997       8.904       7.800       6.696       5.598       4.505       3.410       2.301       1.167      3.2065E-03
   2    9.997       8.895       7.783       6.673       5.571       4.478       3.387       2.284       1.158      3.1815E-03
   3    9.997       8.882       7.758       6.638       5.530       4.437       3.351       2.258       1.145      3.1440E-03
   4    9.997       8.872       7.738       6.610       5.497       4.404       3.323       2.238       1.134      3.1146E-03
   5    9.997       8.871       7.737       6.607       5.494       4.401       3.321       2.236       1.133      3.1125E-03
   6    9.997       8.883       7.759       6.638       5.530       4.437       3.352       2.259       1.146      3.1465E-03
   7    9.997       8.905       7.802       6.697       5.598       4.505       3.411       2.303       1.169      3.2102E-03
   8    9.997       8.931       7.852       6.766       5.678       4.585       3.481       2.354       1.196      3.2856E-03
   9    9.997       8.954       7.896       6.826       5.747       4.654       3.541       2.399       1.220      3.3510E-03
  10    9.997       8.967       7.921       6.861       5.786       4.694       3.576       2.424       1.233      3.3885E-03
1
              HEAD IN LAYER   3 AT END OF TIME STEP  82 IN STRESS PERIOD    5
  ---------------------------------------------------------------------------

            1           2           3           4           5           6           7           8           9          10
 ........................................................................................................................
   1    9.997       8.903       7.800       6.695       5.597       4.504       3.409       2.299       1.166      3.4568E-03
   2    9.997       8.895       7.783       6.673       5.570       4.477       3.386       2.283       1.157      3.4304E-03
   3    9.997       8.882       7.759       6.638       5.531       4.437       3.351       2.258       1.144      3.3912E-03
   4    9.997       8.872       7.739       6.611       5.499       4.406       3.324       2.238       1.133      3.3605E-03
   5    9.997       8.871       7.738       6.609       5.497       4.403       3.322       2.237       1.133      3.3586E-03
   6    9.997       8.883       7.760       6.640       5.532       4.439       3.353       2.259       1.145      3.3947E-03
   7    9.997       8.905       7.802       6.697       5.598       4.505       3.411       2.302       1.168      3.4622E-03
   8    9.997       8.930       7.851       6.766       5.677       4.584       3.480       2.353       1.194      3.5419E-03
   9    9.997       8.953       7.894       6.825       5.745       4.652       3.539       2.396       1.218      3.6111E-03
  10    9.997       8.965       7.919       6.859       5.784       4.691       3.573       2.421       1.231      3.6508E-03
1
              HEAD IN LAYER   4 AT END OF TIME STEP  82 IN STRESS PERIOD    5
  ---------------------------------------------------------------------------

            1           2           3           4           5           6           7           8           9          10
 ........................................................................................................................
   1    9.997       8.903       7.799       6.695       5.596       4.503       3.408       2.299       1.165      3.4811E-03
   2    9.997       8.894       7.783       6.672       5.570       4.477       3.385       2.282       1.156      3.4549E-03
   3    9.997       8.882       7.759       6.639       5.531       4.438       3.351       2.257       1.143      3.4159E-03
   4    9.997       8.872       7.740       6.612       5.500       4.407       3.324       2.238       1.133      3.3855E-03
   5    9.997       8.871       7.738       6.610       5.498       4.404       3.322       2.237       1.132      3.3838E-03
   6    9.997       8.883       7.761       6.641       5.533       4.440       3.353       2.259       1.144      3.4199E-03
   7    9.997       8.905       7.802       6.698       5.599       4.506       3.411       2.302       1.167      3.4873E-03
   8    9.997       8.930       7.851       6.765       5.677       4.584       3.479       2.352       1.194      3.5670E-03
   9    9.997       8.952       7.894       6.824       5.744       4.651       3.538       2.395       1.217      3.6361E-03
  10    9.997       8.965       7.918       6.857       5.783       4.690       3.572       2.420       1.230      3.6758E-03

 HEAD WILL BE SAVED ON UNIT   51 AT END OF TIME STEP   82, STRESS PERIOD    5

 DRAWDOWN WILL BE SAVED ON UNIT   52 AT END OF TIME STEP   82, STRESS PERIOD    5
1
  VOLUMETRIC BUDGET FOR ENTIRE MODEL AT END OF TIME STEP   82, STRESS PERIOD   5
  ------------------------------------------------------------------------------

     CUMULATIVE VOLUMES      L**3       RATES FOR THIS TIME STEP      L**3/T
     ------------------                 ------------------------

           IN:                                      IN:
           ---                                      ---
             STORAGE =      533954.4375               STORAGE =          26.7551
       CONSTANT HEAD =           0.0000         CONSTANT HEAD =           0.0000
               WELLS =           0.0000                 WELLS =           0.0000
     HEAD DEP BOUNDS =      135067.5625       HEAD DEP BOUNDS =         648.4344

            TOTAL IN =      669022.0000              TOTAL IN =         675.1895

          OUT:                                     OUT:
          ----                                     ----
             STORAGE =       15832.5342               STORAGE =          86.0053
       CONSTANT HEAD =           0.0000         CONSTANT HEAD =           0.0000
               WELLS =      100000.0000                 WELLS =           0.0000
     HEAD DEP BOUNDS =      553191.1875       HEAD DEP BOUNDS =         589.1887

           TOTAL OUT =      669023.7500             TOTAL OUT =         675.1940

            IN - OUT =          -1.7500              IN - OUT =      -4.4556E-03

 PERCENT DISCREPANCY =          -0.00     PERCENT DISCREPANCY =          -0.00






         TIME SUMMARY AT END OF TIME STEP   82 IN STRESS PERIOD    5
                    SECONDS     MINUTES      HOURS       DAYS        YEARS
                    -----------------------------------------------------------
   TIME STEP LENGTH  86400.      1440.0      24.000      1.0000     2.73785E-03
 STRESS PERIOD TIME 7.08480E+06 1.18080E+05  1968.0      82.000     0.22450    
         TOTAL TIME 3.30912E+07 5.51520E+05  9192.0      383.00      1.0486    
1
 
 SOLVING FOR HEAD 

 OUTPUT CONTROL FOR STRESS PERIOD    5   TIME STEP   83
    SAVE HEAD FOR ALL LAYERS
    SAVE DRAWDOWN FOR ALL LAYERS
    SAVE BUDGET
    PRINT HEAD FOR ALL LAYERS
    PRINT BUDGET
 UBDSV1 SAVING "         STORAGE" ON UNIT  53 AT TIME STEP 83, STRESS PERIOD   5
 UBDSV2 SAVING "   CONSTANT HEAD" ON UNIT  53 AT TIME STEP 83, STRESS PERIOD   5
 UBDSV1 SAVING "FLOW RIGHT FACE " ON UNIT  53 AT TIME STEP 83, STRESS PERIOD   5
 UBDSV1 SAVING "FLOW FRONT FACE " ON UNIT  53 AT TIME STEP 83, STRESS PERIOD   5
 UBDSV1 SAVING "FLOW LOWER FACE " ON UNIT  53 AT TIME STEP 83, STRESS PERIOD   5
1
              HEAD IN LAYER   1 AT END OF TIME STEP  83 IN STRESS PERIOD    5
  ---------------------------------------------------------------------------

            1           2           3           4           5           6           7           8           9          10
 ........................................................................................................................
   1    9.997       8.905       7.802       6.698       5.599       4.506       3.411       2.302       1.169      1.6087E-03
   2    9.997       8.896       7.785       6.674       5.572       4.479       3.388       2.285       1.160      1.5956E-03
   3    9.997       8.883       7.759       6.639       5.531       4.438       3.352       2.259       1.146      1.5757E-03
   4    9.997       8.873       7.739       6.611       5.498       4.406       3.324       2.239       1.135      1.5605E-03
   5    9.997       8.873       7.738       6.608       5.495       4.402       3.322       2.238       1.134      1.5593E-03
   6    9.997       8.884       7.760       6.639       5.531       4.438       3.353       2.261       1.147      1.5772E-03
   7    9.997       8.906       7.803       6.698       5.599       4.506       3.412       2.304       1.170      1.6107E-03
   8    9.997       8.932       7.853       6.767       5.679       4.586       3.482       2.356       1.197      1.6505E-03
   9    9.997       8.955       7.897       6.827       5.748       4.656       3.543       2.400       1.221      1.6854E-03
  10    9.998       8.968       7.922       6.862       5.788       4.695       3.577       2.425       1.235      1.7052E-03
1
              HEAD IN LAYER   2 AT END OF TIME STEP  83 IN STRESS PERIOD    5
  ---------------------------------------------------------------------------

            1           2           3           4           5           6           7           8           9          10
 ........................................................................................................................
   1    9.997       8.904       7.801       6.697       5.598       4.505       3.409       2.300       1.167      3.2050E-03
   2    9.997       8.896       7.784       6.674       5.572       4.478       3.387       2.284       1.158      3.1806E-03
   3    9.997       8.883       7.760       6.640       5.532       4.439       3.352       2.259       1.145      3.1442E-03
   4    9.997       8.873       7.741       6.613       5.501       4.407       3.325       2.239       1.134      3.1158E-03
   5    9.997       8.873       7.739       6.611       5.498       4.405       3.323       2.238       1.134      3.1141E-03
   6    9.997       8.884       7.762       6.641       5.533       4.440       3.354       2.261       1.146      3.1476E-03
   7    9.997       8.906       7.803       6.699       5.600       4.507       3.412       2.303       1.169      3.2103E-03
   8    9.997       8.931       7.852       6.767       5.678       4.585       3.481       2.354       1.196      3.2844E-03
   9    9.997       8.953       7.895       6.825       5.746       4.653       3.540       2.397       1.219      3.3487E-03
  10    9.997       8.966       7.919       6.859       5.785       4.692       3.574       2.422       1.232      3.3856E-03
1
              HEAD IN LAYER   3 AT END OF TIME STEP  83 IN STRESS PERIOD    5
  ---------------------------------------------------------------------------

            1           2           3           4           5           6           7           8           9          10
 ........................................................................................................................
   1    9.997       8.903       7.800       6.696       5.597       4.503       3.408       2.299       1.165      3.4552E-03
   2    9.997       8.895       7.784       6.674       5.571       4.478       3.386       2.282       1.157      3.4296E-03
   3    9.997       8.883       7.760       6.641       5.533       4.439       3.352       2.258       1.144      3.3914E-03
   4    9.997       8.873       7.742       6.615       5.503       4.409       3.326       2.239       1.134      3.3617E-03
   5    9.997       8.873       7.741       6.613       5.501       4.407       3.324       2.238       1.133      3.3602E-03
   6    9.997       8.884       7.762       6.643       5.535       4.442       3.355       2.260       1.145      3.3959E-03
   7    9.997       8.905       7.803       6.699       5.600       4.507       3.412       2.302       1.168      3.4622E-03
   8    9.997       8.931       7.852       6.766       5.677       4.584       3.479       2.352       1.194      3.5406E-03
   9    9.997       8.952       7.894       6.824       5.744       4.651       3.537       2.395       1.217      3.6086E-03
  10    9.997       8.965       7.918       6.857       5.782       4.689       3.571       2.420       1.230      3.6477E-03
1
              HEAD IN LAYER   4 AT END OF TIME STEP  83 IN STRESS PERIOD    5
  ---------------------------------------------------------------------------

            1           2           3           4           5           6           7           8           9          10
 ........................................................................................................................
   1    9.997       8.903       7.799       6.695       5.596       4.503       3.407       2.298       1.164      3.4796E-03
   2    9.997       8.895       7.784       6.674       5.571       4.477       3.385       2.282       1.156      3.4541E-03
   3    9.997       8.883       7.760       6.641       5.533       4.440       3.352       2.258       1.143      3.4162E-03
   4    9.997       8.873       7.742       6.615       5.504       4.410       3.326       2.239       1.133      3.3867E-03
   5    9.997       8.873       7.741       6.614       5.502       4.408       3.325       2.238       1.133      3.3854E-03
   6    9.997       8.884       7.763       6.644       5.536       4.442       3.355       2.260       1.145      3.4211E-03
   7    9.997       8.905       7.803       6.700       5.601       4.507       3.412       2.302       1.167      3.4874E-03
   8    9.997       8.930       7.851       6.766       5.677       4.584       3.478       2.351       1.193      3.5657E-03
   9    9.997       8.952       7.893       6.823       5.743       4.650       3.536       2.394       1.216      3.6336E-03
  10    9.997       8.964       7.917       6.856       5.781       4.688       3.569       2.418       1.229      3.6727E-03

 HEAD WILL BE SAVED ON UNIT   51 AT END OF TIME STEP   83, STRESS PERIOD    5

 DRAWDOWN WILL BE SAVED ON UNIT   52 AT END OF TIME STEP   83, STRESS PERIOD    5
1
  VOLUMETRIC BUDGET FOR ENTIRE MODEL AT END OF TIME STEP   83, STRESS PERIOD   5
  ------------------------------------------------------------------------------

     CUMULATIVE VOLUMES      L**3       RATES FOR THIS TIME STEP      L**3/T
     ------------------                 ------------------------

           IN:                                      IN:
           ---                                      ---
             STORAGE =      533980.3125               STORAGE =          25.8887
       CONSTANT HEAD =           0.0000         CONSTANT HEAD =           0.0000
               WELLS =           0.0000                 WELLS =           0.0000
     HEAD DEP BOUNDS =      135715.6875       HEAD DEP BOUNDS =         648.1185

            TOTAL IN =      669696.0000              TOTAL IN =         674.0071

          OUT:                                     OUT:
          ----                                     ----
             STORAGE =       15917.4316               STORAGE =          84.8973
       CONSTANT HEAD =           0.0000         CONSTANT HEAD =           0.0000
               WELLS =      100000.0000                 WELLS =           0.0000
     HEAD DEP BOUNDS =      553780.3125       HEAD DEP BOUNDS =         589.1041

           TOTAL OUT =      669697.7500             TOTAL OUT =         674.0014

            IN - OUT =          -1.7500              IN - OUT =       5.7373E-03

 PERCENT DISCREPANCY =          -0.00     PERCENT DISCREPANCY =           0.00






         TIME SUMMARY AT END OF TIME STEP   83 IN STRESS PERIOD    5
                    SECONDS     MINUTES      HOURS       DAYS        YEARS
                    -----------------------------------------------------------
   TIME STEP LENGTH  86400.      1440.0      24.000      1.0000     2.73785E-03
 STRESS PERIOD TIME 7.17120E+06 1.19520E+05  1992.0      83.000     0.22724    
         TOTAL TIME 3.31776E+07 5.52960E+05  9216.0      384.00      1.0513    
1
 
 SOLVING FOR HEAD 

 OUTPUT CONTROL FOR STRESS PERIOD    5   TIME STEP   84
    SAVE HEAD FOR ALL LAYERS
    SAVE DRAWDOWN FOR ALL LAYERS
    SAVE BUDGET
    PRINT HEAD FOR ALL LAYERS
    PRINT BUDGET
 UBDSV1 SAVING "         STORAGE" ON UNIT  53 AT TIME STEP 84, STRESS PERIOD   5
 UBDSV2 SAVING "   CONSTANT HEAD" ON UNIT  53 AT TIME STEP 84, STRESS PERIOD   5
 UBDSV1 SAVING "FLOW RIGHT FACE " ON UNIT  53 AT TIME STEP 84, STRESS PERIOD   5
 UBDSV1 SAVING "FLOW FRONT FACE " ON UNIT  53 AT TIME STEP 84, STRESS PERIOD   5
 UBDSV1 SAVING "FLOW LOWER FACE " ON UNIT  53 AT TIME STEP 84, STRESS PERIOD   5
1
              HEAD IN LAYER   1 AT END OF TIME STEP  84 IN STRESS PERIOD    5
  ---------------------------------------------------------------------------

            1           2           3           4           5           6           7           8           9          10
 ........................................................................................................................
   1    9.997       8.905       7.802       6.698       5.599       4.506       3.411       2.302       1.168      1.6079E-03
   2    9.997       8.897       7.786       6.675       5.573       4.479       3.388       2.285       1.159      1.5951E-03
   3    9.997       8.884       7.761       6.641       5.533       4.440       3.353       2.260       1.146      1.5758E-03
   4    9.997       8.875       7.742       6.614       5.502       4.409       3.326       2.240       1.136      1.5610E-03
   5    9.997       8.874       7.741       6.612       5.499       4.406       3.324       2.239       1.135      1.5602E-03
   6    9.997       8.885       7.763       6.643       5.535       4.441       3.355       2.262       1.147      1.5778E-03
   7    9.997       8.907       7.804       6.700       5.601       4.508       3.413       2.304       1.170      1.6108E-03
   8    9.997       8.932       7.854       6.768       5.679       4.586       3.482       2.355       1.197      1.6499E-03
   9    9.997       8.955       7.896       6.827       5.747       4.654       3.541       2.399       1.220      1.6840E-03
  10    9.998       8.967       7.921       6.860       5.786       4.693       3.575       2.424       1.234      1.7036E-03
1
              HEAD IN LAYER   2 AT END OF TIME STEP  84 IN STRESS PERIOD    5
  ---------------------------------------------------------------------------

            1           2           3           4           5           6           7           8           9          10
 ........................................................................................................................
   1    9.997       8.904       7.801       6.697       5.598       4.504       3.409       2.300       1.166      3.2036E-03
   2    9.997       8.896       7.785       6.675       5.572       4.479       3.387       2.283       1.158      3.1798E-03
   3    9.997       8.884       7.761       6.642       5.534       4.441       3.353       2.259       1.145      3.1444E-03
   4    9.997       8.874       7.743       6.616       5.504       4.411       3.327       2.240       1.135      3.1169E-03
   5    9.997       8.874       7.742       6.615       5.502       4.408       3.326       2.239       1.134      3.1156E-03
   6    9.997       8.885       7.764       6.645       5.537       4.443       3.356       2.262       1.146      3.1488E-03
   7    9.997       8.906       7.805       6.701       5.602       4.508       3.413       2.304       1.169      3.2104E-03
   8    9.997       8.931       7.853       6.767       5.678       4.585       3.480       2.353       1.195      3.2832E-03
   9    9.997       8.953       7.894       6.825       5.745       4.652       3.538       2.396       1.218      3.3464E-03
  10    9.997       8.966       7.919       6.858       5.783       4.690       3.572       2.421       1.231      3.3827E-03
1
              HEAD IN LAYER   3 AT END OF TIME STEP  84 IN STRESS PERIOD    5
  ---------------------------------------------------------------------------

            1           2           3           4           5           6           7           8           9          10
 ........................................................................................................................
   1    9.997       8.903       7.800       6.696       5.597       4.503       3.407       2.298       1.165      3.4537E-03
   2    9.997       8.895       7.785       6.675       5.572       4.478       3.386       2.282       1.156      3.4287E-03
   3    9.997       8.884       7.762       6.643       5.535       4.441       3.353       2.258       1.144      3.3917E-03
   4    9.997       8.874       7.744       6.618       5.506       4.412       3.328       2.240       1.134      3.3630E-03
   5    9.997       8.874       7.743       6.616       5.504       4.410       3.327       2.239       1.134      3.3619E-03
   6    9.997       8.885       7.765       6.646       5.539       4.445       3.357       2.262       1.146      3.3971E-03
   7    9.997       8.906       7.805       6.701       5.602       4.509       3.413       2.303       1.168      3.4623E-03
   8    9.997       8.931       7.852       6.767       5.678       4.584       3.479       2.351       1.194      3.5394E-03
   9    9.997       8.952       7.893       6.823       5.743       4.650       3.536       2.394       1.216      3.6063E-03
  10    9.997       8.964       7.917       6.856       5.780       4.687       3.569       2.418       1.229      3.6447E-03
1
              HEAD IN LAYER   4 AT END OF TIME STEP  84 IN STRESS PERIOD    5
  ---------------------------------------------------------------------------

            1           2           3           4           5           6           7           8           9          10
 ........................................................................................................................
   1    9.997       8.903       7.800       6.696       5.597       4.503       3.407       2.297       1.164      3.4781E-03
   2    9.997       8.895       7.785       6.675       5.572       4.478       3.385       2.281       1.156      3.4533E-03
   3    9.997       8.883       7.762       6.643       5.536       4.441       3.353       2.258       1.143      3.4164E-03
   4    9.997       8.874       7.744       6.619       5.507       4.413       3.329       2.240       1.134      3.3880E-03
   5    9.997       8.874       7.744       6.617       5.506       4.411       3.327       2.239       1.134      3.3871E-03
   6    9.997       8.885       7.765       6.647       5.540       4.445       3.357       2.261       1.145      3.4224E-03
   7    9.997       8.906       7.805       6.702       5.603       4.509       3.413       2.302       1.167      3.4875E-03
   8    9.997       8.930       7.852       6.766       5.677       4.584       3.478       2.351       1.193      3.5645E-03
   9    9.997       8.952       7.893       6.822       5.742       4.648       3.535       2.393       1.215      3.6313E-03
  10    9.997       8.964       7.916       6.855       5.779       4.686       3.567       2.417       1.228      3.6697E-03

 HEAD WILL BE SAVED ON UNIT   51 AT END OF TIME STEP   84, STRESS PERIOD    5

 DRAWDOWN WILL BE SAVED ON UNIT   52 AT END OF TIME STEP   84, STRESS PERIOD    5
1
  VOLUMETRIC BUDGET FOR ENTIRE MODEL AT END OF TIME STEP   84, STRESS PERIOD   5
  ------------------------------------------------------------------------------

     CUMULATIVE VOLUMES      L**3       RATES FOR THIS TIME STEP      L**3/T
     ------------------                 ------------------------

           IN:                                      IN:
           ---                                      ---
             STORAGE =      534005.3750               STORAGE =          25.0510
       CONSTANT HEAD =           0.0000         CONSTANT HEAD =           0.0000
               WELLS =           0.0000                 WELLS =           0.0000
     HEAD DEP BOUNDS =      136363.5000       HEAD DEP BOUNDS =         647.8076

            TOTAL IN =      670368.8750              TOTAL IN =         672.8586

          OUT:                                     OUT:
          ----                                     ----
             STORAGE =       16001.2520               STORAGE =          83.8201
       CONSTANT HEAD =           0.0000         CONSTANT HEAD =           0.0000
               WELLS =      100000.0000                 WELLS =           0.0000
     HEAD DEP BOUNDS =      554369.3125       HEAD DEP BOUNDS =         589.0242

           TOTAL OUT =      670370.5625             TOTAL OUT =         672.8444

            IN - OUT =          -1.6875              IN - OUT =       1.4221E-02

 PERCENT DISCREPANCY =          -0.00     PERCENT DISCREPANCY =           0.00






         TIME SUMMARY AT END OF TIME STEP   84 IN STRESS PERIOD    5
                    SECONDS     MINUTES      HOURS       DAYS        YEARS
                    -----------------------------------------------------------
   TIME STEP LENGTH  86400.      1440.0      24.000      1.0000     2.73785E-03
 STRESS PERIOD TIME 7.25760E+06 1.20960E+05  2016.0      84.000     0.22998    
         TOTAL TIME 3.32640E+07 5.54400E+05  9240.0      385.00      1.0541    
1
 
 SOLVING FOR HEAD 

 OUTPUT CONTROL FOR STRESS PERIOD    5   TIME STEP   85
    SAVE HEAD FOR ALL LAYERS
    SAVE DRAWDOWN FOR ALL LAYERS
    SAVE BUDGET
    PRINT HEAD FOR ALL LAYERS
    PRINT BUDGET
 UBDSV1 SAVING "         STORAGE" ON UNIT  53 AT TIME STEP 85, STRESS PERIOD   5
 UBDSV2 SAVING "   CONSTANT HEAD" ON UNIT  53 AT TIME STEP 85, STRESS PERIOD   5
 UBDSV1 SAVING "FLOW RIGHT FACE " ON UNIT  53 AT TIME STEP 85, STRESS PERIOD   5
 UBDSV1 SAVING "FLOW FRONT FACE " ON UNIT  53 AT TIME STEP 85, STRESS PERIOD   5
 UBDSV1 SAVING "FLOW LOWER FACE " ON UNIT  53 AT TIME STEP 85, STRESS PERIOD   5
1
              HEAD IN LAYER   1 AT END OF TIME STEP  85 IN STRESS PERIOD    5
  ---------------------------------------------------------------------------

            1           2           3           4           5           6           7           8           9          10
 ........................................................................................................................
   1    9.997       8.905       7.802       6.698       5.599       4.506       3.410       2.301       1.168      1.6071E-03
   2    9.997       8.897       7.786       6.676       5.574       4.480       3.388       2.285       1.159      1.5947E-03
   3    9.997       8.885       7.763       6.643       5.535       4.442       3.355       2.260       1.146      1.5759E-03
   4    9.997       8.876       7.744       6.617       5.505       4.412       3.329       2.241       1.136      1.5617E-03
   5    9.997       8.875       7.743       6.616       5.503       4.410       3.327       2.240       1.136      1.5610E-03
   6    9.997       8.887       7.765       6.646       5.538       4.444       3.357       2.263       1.148      1.5783E-03
   7    9.997       8.908       7.806       6.702       5.603       4.509       3.414       2.305       1.170      1.6108E-03
   8    9.997       8.933       7.854       6.768       5.680       4.586       3.481       2.354       1.196      1.6493E-03
   9    9.997       8.954       7.896       6.826       5.746       4.653       3.540       2.397       1.219      1.6829E-03
  10    9.998       8.967       7.920       6.859       5.784       4.691       3.573       2.422       1.233      1.7020E-03
1
              HEAD IN LAYER   2 AT END OF TIME STEP  85 IN STRESS PERIOD    5
  ---------------------------------------------------------------------------

            1           2           3           4           5           6           7           8           9          10
 ........................................................................................................................
   1    9.997       8.904       7.801       6.697       5.598       4.504       3.408       2.299       1.166      3.2022E-03
   2    9.997       8.896       7.786       6.676       5.573       4.479       3.387       2.283       1.157      3.1791E-03
   3    9.997       8.885       7.763       6.644       5.537       4.442       3.355       2.260       1.145      3.1447E-03
   4    9.997       8.876       7.745       6.619       5.508       4.414       3.329       2.241       1.135      3.1181E-03
   5    9.997       8.875       7.745       6.618       5.506       4.412       3.328       2.241       1.135      3.1172E-03
   6    9.997       8.887       7.766       6.648       5.540       4.446       3.358       2.263       1.147      3.1499E-03
   7    9.997       8.907       7.806       6.703       5.604       4.510       3.414       2.304       1.169      3.2105E-03
   8    9.997       8.932       7.853       6.768       5.679       4.585       3.480       2.353       1.195      3.2820E-03
   9    9.997       8.953       7.894       6.824       5.744       4.650       3.537       2.395       1.217      3.3442E-03
  10    9.997       8.965       7.918       6.856       5.781       4.688       3.570       2.419       1.230      3.3799E-03
1
              HEAD IN LAYER   3 AT END OF TIME STEP  85 IN STRESS PERIOD    5
  ---------------------------------------------------------------------------

            1           2           3           4           5           6           7           8           9          10
 ........................................................................................................................
   1    9.997       8.904       7.800       6.696       5.597       4.503       3.407       2.297       1.164      3.4522E-03
   2    9.997       8.896       7.786       6.676       5.573       4.479       3.386       2.282       1.156      3.4280E-03
   3    9.997       8.884       7.763       6.645       5.537       4.443       3.355       2.259       1.144      3.3920E-03
   4    9.997       8.876       7.746       6.621       5.510       4.415       3.330       2.241       1.135      3.3642E-03
   5    9.997       8.875       7.746       6.620       5.508       4.414       3.329       2.241       1.134      3.3636E-03
   6    9.997       8.887       7.767       6.649       5.542       4.448       3.359       2.263       1.146      3.3983E-03
   7    9.997       8.907       7.806       6.703       5.604       4.510       3.414       2.303       1.168      3.4625E-03
   8    9.997       8.931       7.853       6.767       5.678       4.584       3.478       2.351       1.193      3.5382E-03
   9    9.997       8.952       7.893       6.822       5.742       4.648       3.535       2.392       1.215      3.6039E-03
  10    9.997       8.964       7.916       6.854       5.779       4.685       3.567       2.416       1.228      3.6418E-03
1
              HEAD IN LAYER   4 AT END OF TIME STEP  85 IN STRESS PERIOD    5
  ---------------------------------------------------------------------------

            1           2           3           4           5           6           7           8           9          10
 ........................................................................................................................
   1    9.997       8.903       7.800       6.696       5.597       4.502       3.406       2.296       1.163      3.4767E-03
   2    9.997       8.896       7.785       6.676       5.573       4.479       3.385       2.281       1.155      3.4525E-03
   3    9.997       8.884       7.764       6.645       5.538       4.443       3.354       2.259       1.143      3.4168E-03
   4    9.997       8.876       7.747       6.622       5.510       4.416       3.331       2.241       1.134      3.3893E-03
   5    9.997       8.876       7.746       6.621       5.509       4.415       3.330       2.241       1.134      3.3888E-03
   6    9.997       8.887       7.767       6.650       5.543       4.448       3.359       2.263       1.146      3.4236E-03
   7    9.997       8.907       7.806       6.703       5.605       4.510       3.414       2.303       1.167      3.4876E-03
   8    9.997       8.931       7.852       6.767       5.678       4.584       3.478       2.350       1.192      3.5633E-03
   9    9.997       8.951       7.892       6.822       5.741       4.647       3.533       2.391       1.214      3.6290E-03
  10    9.997       8.963       7.915       6.853       5.777       4.684       3.565       2.415       1.227      3.6667E-03

 HEAD WILL BE SAVED ON UNIT   51 AT END OF TIME STEP   85, STRESS PERIOD    5

 DRAWDOWN WILL BE SAVED ON UNIT   52 AT END OF TIME STEP   85, STRESS PERIOD    5
1
  VOLUMETRIC BUDGET FOR ENTIRE MODEL AT END OF TIME STEP   85, STRESS PERIOD   5
  ------------------------------------------------------------------------------

     CUMULATIVE VOLUMES      L**3       RATES FOR THIS TIME STEP      L**3/T
     ------------------                 ------------------------

           IN:                                      IN:
           ---                                      ---
             STORAGE =      534029.6250               STORAGE =          24.2367
       CONSTANT HEAD =           0.0000         CONSTANT HEAD =           0.0000
               WELLS =           0.0000                 WELLS =           0.0000
     HEAD DEP BOUNDS =      137010.9844       HEAD DEP BOUNDS =         647.4892

            TOTAL IN =      671040.6250              TOTAL IN =         671.7260

          OUT:                                     OUT:
          ----                                     ----
             STORAGE =       16084.0176               STORAGE =          82.7652
       CONSTANT HEAD =           0.0000         CONSTANT HEAD =           0.0000
               WELLS =      100000.0000                 WELLS =           0.0000
     HEAD DEP BOUNDS =      554958.2500       HEAD DEP BOUNDS =         588.9517

           TOTAL OUT =      671042.2500             TOTAL OUT =         671.7169

            IN - OUT =          -1.6250              IN - OUT =       9.0942E-03

 PERCENT DISCREPANCY =          -0.00     PERCENT DISCREPANCY =           0.00






         TIME SUMMARY AT END OF TIME STEP   85 IN STRESS PERIOD    5
                    SECONDS     MINUTES      HOURS       DAYS        YEARS
                    -----------------------------------------------------------
   TIME STEP LENGTH  86400.      1440.0      24.000      1.0000     2.73785E-03
 STRESS PERIOD TIME 7.34400E+06 1.22400E+05  2040.0      85.000     0.23272    
         TOTAL TIME 3.33504E+07 5.55840E+05  9264.0      386.00      1.0568    
1
 
 SOLVING FOR HEAD 

 OUTPUT CONTROL FOR STRESS PERIOD    5   TIME STEP   86
    SAVE HEAD FOR ALL LAYERS
    SAVE DRAWDOWN FOR ALL LAYERS
    SAVE BUDGET
    PRINT HEAD FOR ALL LAYERS
    PRINT BUDGET
 UBDSV1 SAVING "         STORAGE" ON UNIT  53 AT TIME STEP 86, STRESS PERIOD   5
 UBDSV2 SAVING "   CONSTANT HEAD" ON UNIT  53 AT TIME STEP 86, STRESS PERIOD   5
 UBDSV1 SAVING "FLOW RIGHT FACE " ON UNIT  53 AT TIME STEP 86, STRESS PERIOD   5
 UBDSV1 SAVING "FLOW FRONT FACE " ON UNIT  53 AT TIME STEP 86, STRESS PERIOD   5
 UBDSV1 SAVING "FLOW LOWER FACE " ON UNIT  53 AT TIME STEP 86, STRESS PERIOD   5
1
              HEAD IN LAYER   1 AT END OF TIME STEP  86 IN STRESS PERIOD    5
  ---------------------------------------------------------------------------

            1           2           3           4           5           6           7           8           9          10
 ........................................................................................................................
   1    9.997       8.906       7.803       6.698       5.599       4.505       3.410       2.300       1.167      1.6065E-03
   2    9.997       8.898       7.787       6.677       5.575       4.481       3.388       2.284       1.159      1.5943E-03
   3    9.997       8.886       7.764       6.645       5.538       4.444       3.356       2.261       1.146      1.5761E-03
   4    9.997       8.877       7.747       6.621       5.509       4.415       3.331       2.243       1.136      1.5624E-03
   5    9.997       8.877       7.746       6.619       5.507       4.413       3.329       2.242       1.136      1.5618E-03
   6    9.997       8.888       7.767       6.649       5.541       4.447       3.359       2.264       1.148      1.5790E-03
   7    9.997       8.908       7.807       6.704       5.605       4.511       3.415       2.305       1.170      1.6109E-03
   8    9.997       8.933       7.854       6.769       5.680       4.586       3.481       2.354       1.196      1.6486E-03
   9    9.997       8.954       7.895       6.825       5.745       4.652       3.538       2.396       1.219      1.6817E-03
  10    9.998       8.966       7.919       6.858       5.782       4.689       3.571       2.420       1.232      1.7006E-03
1
              HEAD IN LAYER   2 AT END OF TIME STEP  86 IN STRESS PERIOD    5
  ---------------------------------------------------------------------------

            1           2           3           4           5           6           7           8           9          10
 ........................................................................................................................
   1    9.997       8.904       7.802       6.697       5.598       4.504       3.408       2.298       1.165      3.2009E-03
   2    9.997       8.897       7.787       6.677       5.574       4.480       3.387       2.283       1.157      3.1784E-03
   3    9.997       8.886       7.765       6.646       5.539       4.444       3.356       2.260       1.145      3.1450E-03
   4    9.997       8.877       7.748       6.622       5.511       4.416       3.332       2.242       1.136      3.1193E-03
   5    9.997       8.877       7.747       6.622       5.510       4.415       3.331       2.242       1.135      3.1187E-03
   6    9.997       8.888       7.768       6.651       5.543       4.449       3.360       2.264       1.147      3.1510E-03
   7    9.997       8.908       7.807       6.705       5.606       4.511       3.415       2.304       1.169      3.2106E-03
   8    9.997       8.932       7.854       6.768       5.679       4.585       3.480       2.352       1.194      3.2809E-03
   9    9.997       8.953       7.894       6.823       5.743       4.649       3.536       2.393       1.217      3.3421E-03
  10    9.997       8.965       7.917       6.855       5.779       4.686       3.568       2.417       1.229      3.3772E-03
1
              HEAD IN LAYER   3 AT END OF TIME STEP  86 IN STRESS PERIOD    5
  ---------------------------------------------------------------------------

            1           2           3           4           5           6           7           8           9          10
 ........................................................................................................................
   1    9.997       8.904       7.801       6.697       5.597       4.503       3.406       2.297       1.164      3.4509E-03
   2    9.997       8.896       7.786       6.677       5.574       4.480       3.386       2.282       1.156      3.4273E-03
   3    9.997       8.885       7.765       6.647       5.540       4.445       3.356       2.259       1.144      3.3923E-03
   4    9.997       8.877       7.749       6.624       5.513       4.418       3.332       2.242       1.135      3.3655E-03
   5    9.997       8.877       7.748       6.623       5.512       4.417       3.332       2.242       1.135      3.3652E-03
   6    9.997       8.888       7.769       6.652       5.545       4.450       3.361       2.264       1.146      3.3996E-03
   7    9.997       8.908       7.808       6.705       5.606       4.512       3.415       2.303       1.168      3.4626E-03
   8    9.997       8.931       7.853       6.768       5.678       4.584       3.478       2.350       1.193      3.5370E-03
   9    9.997       8.952       7.892       6.822       5.741       4.647       3.533       2.391       1.215      3.6017E-03
  10    9.997       8.963       7.915       6.853       5.777       4.683       3.565       2.415       1.227      3.6389E-03
1
              HEAD IN LAYER   4 AT END OF TIME STEP  86 IN STRESS PERIOD    5
  ---------------------------------------------------------------------------

            1           2           3           4           5           6           7           8           9          10
 ........................................................................................................................
   1    9.997       8.903       7.800       6.696       5.597       4.502       3.406       2.296       1.163      3.4753E-03
   2    9.997       8.896       7.786       6.677       5.574       4.479       3.385       2.281       1.155      3.4519E-03
   3    9.997       8.885       7.765       6.647       5.540       4.445       3.356       2.259       1.144      3.4171E-03
   4    9.997       8.877       7.749       6.625       5.514       4.419       3.333       2.242       1.135      3.3906E-03
   5    9.997       8.877       7.749       6.624       5.513       4.418       3.332       2.242       1.135      3.3904E-03
   6    9.997       8.888       7.770       6.653       5.546       4.451       3.361       2.264       1.146      3.4248E-03
   7    9.997       8.907       7.808       6.705       5.607       4.512       3.415       2.303       1.167      3.4878E-03
   8    9.997       8.931       7.853       6.767       5.678       4.584       3.477       2.350       1.192      3.5621E-03
   9    9.997       8.951       7.892       6.821       5.740       4.646       3.532       2.390       1.214      3.6267E-03
  10    9.997       8.963       7.914       6.852       5.776       4.682       3.564       2.413       1.226      3.6639E-03

 HEAD WILL BE SAVED ON UNIT   51 AT END OF TIME STEP   86, STRESS PERIOD    5

 DRAWDOWN WILL BE SAVED ON UNIT   52 AT END OF TIME STEP   86, STRESS PERIOD    5
1
  VOLUMETRIC BUDGET FOR ENTIRE MODEL AT END OF TIME STEP   86, STRESS PERIOD   5
  ------------------------------------------------------------------------------

     CUMULATIVE VOLUMES      L**3       RATES FOR THIS TIME STEP      L**3/T
     ------------------                 ------------------------

           IN:                                      IN:
           ---                                      ---
             STORAGE =      534053.0625               STORAGE =          23.4446
       CONSTANT HEAD =           0.0000         CONSTANT HEAD =           0.0000
               WELLS =           0.0000                 WELLS =           0.0000
     HEAD DEP BOUNDS =      137658.1562       HEAD DEP BOUNDS =         647.1730

            TOTAL IN =      671711.2500              TOTAL IN =         670.6176

          OUT:                                     OUT:
          ----                                     ----
             STORAGE =       16165.7402               STORAGE =          81.7229
       CONSTANT HEAD =           0.0000         CONSTANT HEAD =           0.0000
               WELLS =      100000.0000                 WELLS =           0.0000
     HEAD DEP BOUNDS =      555547.1250       HEAD DEP BOUNDS =         588.8867

           TOTAL OUT =      671712.8750             TOTAL OUT =         670.6096

            IN - OUT =          -1.6250              IN - OUT =       7.9956E-03

 PERCENT DISCREPANCY =          -0.00     PERCENT DISCREPANCY =           0.00






         TIME SUMMARY AT END OF TIME STEP   86 IN STRESS PERIOD    5
                    SECONDS     MINUTES      HOURS       DAYS        YEARS
                    -----------------------------------------------------------
   TIME STEP LENGTH  86400.      1440.0      24.000      1.0000     2.73785E-03
 STRESS PERIOD TIME 7.43040E+06 1.23840E+05  2064.0      86.000     0.23546    
         TOTAL TIME 3.34368E+07 5.57280E+05  9288.0      387.00      1.0595    
1
 
 SOLVING FOR HEAD 

 OUTPUT CONTROL FOR STRESS PERIOD    5   TIME STEP   87
    SAVE HEAD FOR ALL LAYERS
    SAVE DRAWDOWN FOR ALL LAYERS
    SAVE BUDGET
    PRINT HEAD FOR ALL LAYERS
    PRINT BUDGET
 UBDSV1 SAVING "         STORAGE" ON UNIT  53 AT TIME STEP 87, STRESS PERIOD   5
 UBDSV2 SAVING "   CONSTANT HEAD" ON UNIT  53 AT TIME STEP 87, STRESS PERIOD   5
 UBDSV1 SAVING "FLOW RIGHT FACE " ON UNIT  53 AT TIME STEP 87, STRESS PERIOD   5
 UBDSV1 SAVING "FLOW FRONT FACE " ON UNIT  53 AT TIME STEP 87, STRESS PERIOD   5
 UBDSV1 SAVING "FLOW LOWER FACE " ON UNIT  53 AT TIME STEP 87, STRESS PERIOD   5
1
              HEAD IN LAYER   1 AT END OF TIME STEP  87 IN STRESS PERIOD    5
  ---------------------------------------------------------------------------

            1           2           3           4           5           6           7           8           9          10
 ........................................................................................................................
   1    9.997       8.906       7.803       6.699       5.600       4.505       3.409       2.300       1.167      1.6059E-03
   2    9.997       8.898       7.788       6.678       5.576       4.481       3.388       2.284       1.158      1.5940E-03
   3    9.997       8.887       7.766       6.647       5.540       4.445       3.357       2.261       1.146      1.5763E-03
   4    9.997       8.878       7.749       6.624       5.512       4.418       3.333       2.244       1.137      1.5629E-03
   5    9.997       8.878       7.748       6.623       5.511       4.416       3.332       2.243       1.137      1.5627E-03
   6    9.997       8.889       7.770       6.652       5.545       4.450       3.361       2.265       1.148      1.5796E-03
   7    9.997       8.909       7.809       6.706       5.607       4.513       3.416       2.306       1.170      1.6109E-03
   8    9.997       8.933       7.855       6.769       5.680       4.586       3.481       2.353       1.196      1.6481E-03
   9    9.997       8.954       7.895       6.825       5.744       4.650       3.537       2.395       1.218      1.6805E-03
  10    9.998       8.966       7.918       6.856       5.781       4.687       3.569       2.418       1.231      1.6991E-03
1
              HEAD IN LAYER   2 AT END OF TIME STEP  87 IN STRESS PERIOD    5
  ---------------------------------------------------------------------------

            1           2           3           4           5           6           7           8           9          10
 ........................................................................................................................
   1    9.997       8.905       7.802       6.698       5.599       4.504       3.407       2.298       1.165      3.1996E-03
   2    9.997       8.897       7.788       6.678       5.575       4.481       3.387       2.283       1.157      3.1777E-03
   3    9.997       8.886       7.766       6.648       5.541       4.446       3.357       2.261       1.145      3.1453E-03
   4    9.997       8.878       7.750       6.626       5.514       4.419       3.334       2.244       1.136      3.1205E-03
   5    9.997       8.878       7.750       6.625       5.514       4.419       3.333       2.243       1.136      3.1203E-03
   6    9.997       8.889       7.771       6.654       5.547       4.452       3.362       2.265       1.148      3.1522E-03
   7    9.997       8.909       7.809       6.706       5.608       4.513       3.416       2.305       1.169      3.2107E-03
   8    9.997       8.932       7.854       6.769       5.679       4.585       3.479       2.351       1.194      3.2799E-03
   9    9.997       8.952       7.893       6.823       5.742       4.648       3.534       2.392       1.216      3.3399E-03
  10    9.997       8.964       7.916       6.854       5.778       4.684       3.566       2.416       1.228      3.3745E-03
1
              HEAD IN LAYER   3 AT END OF TIME STEP  87 IN STRESS PERIOD    5
  ---------------------------------------------------------------------------

            1           2           3           4           5           6           7           8           9          10
 ........................................................................................................................
   1    9.997       8.904       7.801       6.697       5.598       4.503       3.406       2.296       1.163      3.4496E-03
   2    9.997       8.897       7.787       6.678       5.575       4.480       3.386       2.281       1.156      3.4266E-03
   3    9.997       8.886       7.767       6.649       5.542       4.447       3.357       2.260       1.144      3.3927E-03
   4    9.997       8.878       7.751       6.627       5.516       4.421       3.334       2.243       1.135      3.3668E-03
   5    9.997       8.878       7.751       6.627       5.516       4.420       3.334       2.243       1.135      3.3669E-03
   6    9.997       8.889       7.771       6.655       5.548       4.453       3.363       2.265       1.147      3.4008E-03
   7    9.997       8.908       7.809       6.707       5.608       4.513       3.416       2.304       1.168      3.4628E-03
   8    9.997       8.931       7.853       6.768       5.679       4.584       3.478       2.350       1.192      3.5359E-03
   9    9.997       8.951       7.892       6.821       5.740       4.646       3.532       2.390       1.214      3.5995E-03
  10    9.997       8.963       7.914       6.852       5.775       4.681       3.563       2.413       1.226      3.6360E-03
1
              HEAD IN LAYER   4 AT END OF TIME STEP  87 IN STRESS PERIOD    5
  ---------------------------------------------------------------------------

            1           2           3           4           5           6           7           8           9          10
 ........................................................................................................................
   1    9.997       8.904       7.801       6.697       5.597       4.502       3.405       2.295       1.163      3.4741E-03
   2    9.997       8.896       7.787       6.678       5.575       4.480       3.386       2.281       1.155      3.4512E-03
   3    9.997       8.886       7.767       6.649       5.542       4.447       3.357       2.260       1.144      3.4175E-03
   4    9.997       8.878       7.751       6.628       5.517       4.421       3.335       2.243       1.135      3.3919E-03
   5    9.997       8.878       7.751       6.628       5.517       4.421       3.334       2.243       1.135      3.3921E-03
   6    9.997       8.889       7.772       6.656       5.549       4.454       3.363       2.265       1.147      3.4261E-03
   7    9.997       8.908       7.809       6.707       5.608       4.513       3.415       2.303       1.167      3.4880E-03
   8    9.997       8.931       7.853       6.768       5.678       4.584       3.477       2.349       1.192      3.5610E-03
   9    9.997       8.951       7.891       6.820       5.739       4.645       3.531       2.389       1.213      3.6245E-03
  10    9.997       8.962       7.913       6.851       5.774       4.680       3.562       2.412       1.225      3.6610E-03

 HEAD WILL BE SAVED ON UNIT   51 AT END OF TIME STEP   87, STRESS PERIOD    5

 DRAWDOWN WILL BE SAVED ON UNIT   52 AT END OF TIME STEP   87, STRESS PERIOD    5
1
  VOLUMETRIC BUDGET FOR ENTIRE MODEL AT END OF TIME STEP   87, STRESS PERIOD   5
  ------------------------------------------------------------------------------

     CUMULATIVE VOLUMES      L**3       RATES FOR THIS TIME STEP      L**3/T
     ------------------                 ------------------------

           IN:                                      IN:
           ---                                      ---
             STORAGE =      534075.7500               STORAGE =          22.6670
       CONSTANT HEAD =           0.0000         CONSTANT HEAD =           0.0000
               WELLS =           0.0000                 WELLS =           0.0000
     HEAD DEP BOUNDS =      138305.0156       HEAD DEP BOUNDS =         646.8522

            TOTAL IN =      672380.7500              TOTAL IN =         669.5193

          OUT:                                     OUT:
          ----                                     ----
             STORAGE =       16246.4336               STORAGE =          80.6938
       CONSTANT HEAD =           0.0000         CONSTANT HEAD =           0.0000
               WELLS =      100000.0000                 WELLS =           0.0000
     HEAD DEP BOUNDS =      556135.9375       HEAD DEP BOUNDS =         588.8278

           TOTAL OUT =      672382.3750             TOTAL OUT =         669.5215

            IN - OUT =          -1.6250              IN - OUT =      -2.2583E-03

 PERCENT DISCREPANCY =          -0.00     PERCENT DISCREPANCY =          -0.00






         TIME SUMMARY AT END OF TIME STEP   87 IN STRESS PERIOD    5
                    SECONDS     MINUTES      HOURS       DAYS        YEARS
                    -----------------------------------------------------------
   TIME STEP LENGTH  86400.      1440.0      24.000      1.0000     2.73785E-03
 STRESS PERIOD TIME 7.51680E+06 1.25280E+05  2088.0      87.000     0.23819    
         TOTAL TIME 3.35232E+07 5.58720E+05  9312.0      388.00      1.0623    
1
 
 SOLVING FOR HEAD 

 OUTPUT CONTROL FOR STRESS PERIOD    5   TIME STEP   88
    SAVE HEAD FOR ALL LAYERS
    SAVE DRAWDOWN FOR ALL LAYERS
    SAVE BUDGET
    PRINT HEAD FOR ALL LAYERS
    PRINT BUDGET
 UBDSV1 SAVING "         STORAGE" ON UNIT  53 AT TIME STEP 88, STRESS PERIOD   5
 UBDSV2 SAVING "   CONSTANT HEAD" ON UNIT  53 AT TIME STEP 88, STRESS PERIOD   5
 UBDSV1 SAVING "FLOW RIGHT FACE " ON UNIT  53 AT TIME STEP 88, STRESS PERIOD   5
 UBDSV1 SAVING "FLOW FRONT FACE " ON UNIT  53 AT TIME STEP 88, STRESS PERIOD   5
 UBDSV1 SAVING "FLOW LOWER FACE " ON UNIT  53 AT TIME STEP 88, STRESS PERIOD   5
1
              HEAD IN LAYER   1 AT END OF TIME STEP  88 IN STRESS PERIOD    5
  ---------------------------------------------------------------------------

            1           2           3           4           5           6           7           8           9          10
 ........................................................................................................................
   1    9.997       8.906       7.803       6.699       5.600       4.505       3.409       2.299       1.166      1.6052E-03
   2    9.997       8.899       7.789       6.679       5.577       4.482       3.388       2.284       1.158      1.5935E-03
   3    9.997       8.888       7.768       6.650       5.542       4.447       3.358       2.262       1.146      1.5765E-03
   4    9.997       8.879       7.751       6.627       5.516       4.421       3.335       2.245       1.137      1.5636E-03
   5    9.997       8.879       7.751       6.626       5.515       4.420       3.334       2.245       1.137      1.5635E-03
   6    9.997       8.890       7.772       6.655       5.548       4.453       3.363       2.266       1.149      1.5801E-03
   7    9.997       8.910       7.810       6.708       5.609       4.514       3.417       2.306       1.170      1.6110E-03
   8    9.997       8.933       7.855       6.770       5.681       4.586       3.480       2.353       1.195      1.6476E-03
   9    9.997       8.954       7.894       6.824       5.743       4.649       3.535       2.393       1.217      1.6794E-03
  10    9.998       8.965       7.917       6.855       5.779       4.685       3.567       2.417       1.230      1.6977E-03
1
              HEAD IN LAYER   2 AT END OF TIME STEP  88 IN STRESS PERIOD    5
  ---------------------------------------------------------------------------

            1           2           3           4           5           6           7           8           9          10
 ........................................................................................................................
   1    9.997       8.905       7.802       6.698       5.599       4.504       3.407       2.297       1.164      3.1984E-03
   2    9.997       8.898       7.788       6.679       5.576       4.481       3.387       2.283       1.157      3.1771E-03
   3    9.997       8.887       7.768       6.650       5.543       4.448       3.358       2.261       1.145      3.1456E-03
   4    9.997       8.879       7.752       6.629       5.518       4.422       3.336       2.245       1.137      3.1217E-03
   5    9.997       8.879       7.752       6.628       5.517       4.422       3.335       2.245       1.137      3.1218E-03
   6    9.997       8.890       7.773       6.657       5.550       4.455       3.364       2.266       1.148      3.1533E-03
   7    9.997       8.909       7.810       6.708       5.609       4.515       3.417       2.305       1.169      3.2109E-03
   8    9.997       8.932       7.854       6.769       5.680       4.585       3.479       2.351       1.194      3.2788E-03
   9    9.997       8.952       7.893       6.822       5.741       4.647       3.533       2.391       1.215      3.3379E-03
  10    9.997       8.964       7.915       6.852       5.776       4.682       3.564       2.414       1.227      3.3719E-03
1
              HEAD IN LAYER   3 AT END OF TIME STEP  88 IN STRESS PERIOD    5
  ---------------------------------------------------------------------------

            1           2           3           4           5           6           7           8           9          10
 ........................................................................................................................
   1    9.997       8.904       7.802       6.698       5.598       4.503       3.405       2.295       1.163      3.4484E-03
   2    9.997       8.897       7.788       6.679       5.576       4.481       3.386       2.281       1.155      3.4260E-03
   3    9.997       8.887       7.768       6.651       5.544       4.448       3.358       2.260       1.144      3.3931E-03
   4    9.997       8.879       7.753       6.630       5.519       4.424       3.336       2.245       1.136      3.3681E-03
   5    9.997       8.879       7.753       6.630       5.519       4.423       3.336       2.245       1.136      3.3685E-03
   6    9.997       8.890       7.773       6.658       5.551       4.456       3.365       2.266       1.147      3.4020E-03
   7    9.997       8.909       7.810       6.709       5.610       4.515       3.417       2.304       1.168      3.4630E-03
   8    9.997       8.932       7.854       6.769       5.679       4.584       3.478       2.349       1.192      3.5348E-03
   9    9.997       8.951       7.892       6.821       5.739       4.645       3.531       2.389       1.213      3.5973E-03
  10    9.997       8.963       7.913       6.850       5.774       4.679       3.561       2.411       1.225      3.6333E-03
1
              HEAD IN LAYER   4 AT END OF TIME STEP  88 IN STRESS PERIOD    5
  ---------------------------------------------------------------------------

            1           2           3           4           5           6           7           8           9          10
 ........................................................................................................................
   1    9.997       8.904       7.801       6.697       5.598       4.502       3.405       2.295       1.162      3.4728E-03
   2    9.997       8.897       7.788       6.679       5.576       4.481       3.386       2.281       1.155      3.4507E-03
   3    9.997       8.887       7.768       6.651       5.544       4.449       3.358       2.260       1.144      3.4179E-03
   4    9.997       8.879       7.753       6.631       5.520       4.424       3.337       2.245       1.136      3.3932E-03
   5    9.997       8.879       7.754       6.631       5.520       4.424       3.337       2.245       1.136      3.3937E-03
   6    9.997       8.890       7.774       6.658       5.552       4.456       3.365       2.266       1.147      3.4273E-03
   7    9.997       8.909       7.810       6.709       5.610       4.515       3.416       2.304       1.167      3.4882E-03
   8    9.997       8.931       7.853       6.768       5.679       4.584       3.477       2.349       1.191      3.5600E-03
   9    9.997       8.951       7.891       6.820       5.738       4.644       3.530       2.388       1.212      3.6224E-03
  10    9.997       8.962       7.913       6.850       5.773       4.678       3.560       2.410       1.224      3.6583E-03

 HEAD WILL BE SAVED ON UNIT   51 AT END OF TIME STEP   88, STRESS PERIOD    5

 DRAWDOWN WILL BE SAVED ON UNIT   52 AT END OF TIME STEP   88, STRESS PERIOD    5
1
  VOLUMETRIC BUDGET FOR ENTIRE MODEL AT END OF TIME STEP   88, STRESS PERIOD   5
  ------------------------------------------------------------------------------

     CUMULATIVE VOLUMES      L**3       RATES FOR THIS TIME STEP      L**3/T
     ------------------                 ------------------------

           IN:                                      IN:
           ---                                      ---
             STORAGE =      534097.6875               STORAGE =          21.9116
       CONSTANT HEAD =           0.0000         CONSTANT HEAD =           0.0000
               WELLS =           0.0000                 WELLS =           0.0000
     HEAD DEP BOUNDS =      138951.5625       HEAD DEP BOUNDS =         646.5474

            TOTAL IN =      673049.2500              TOTAL IN =         668.4590

          OUT:                                     OUT:
          ----                                     ----
             STORAGE =       16326.1152               STORAGE =          79.6818
       CONSTANT HEAD =           0.0000         CONSTANT HEAD =           0.0000
               WELLS =      100000.0000                 WELLS =           0.0000
     HEAD DEP BOUNDS =      556724.6875       HEAD DEP BOUNDS =         588.7736

           TOTAL OUT =      673050.8125             TOTAL OUT =         668.4554

            IN - OUT =          -1.5625              IN - OUT =       3.6011E-03

 PERCENT DISCREPANCY =          -0.00     PERCENT DISCREPANCY =           0.00






         TIME SUMMARY AT END OF TIME STEP   88 IN STRESS PERIOD    5
                    SECONDS     MINUTES      HOURS       DAYS        YEARS
                    -----------------------------------------------------------
   TIME STEP LENGTH  86400.      1440.0      24.000      1.0000     2.73785E-03
 STRESS PERIOD TIME 7.60320E+06 1.26720E+05  2112.0      88.000     0.24093    
         TOTAL TIME 3.36096E+07 5.60160E+05  9336.0      389.00      1.0650    
1
 
 SOLVING FOR HEAD 

 OUTPUT CONTROL FOR STRESS PERIOD    5   TIME STEP   89
    SAVE HEAD FOR ALL LAYERS
    SAVE DRAWDOWN FOR ALL LAYERS
    SAVE BUDGET
    PRINT HEAD FOR ALL LAYERS
    PRINT BUDGET
 UBDSV1 SAVING "         STORAGE" ON UNIT  53 AT TIME STEP 89, STRESS PERIOD   5
 UBDSV2 SAVING "   CONSTANT HEAD" ON UNIT  53 AT TIME STEP 89, STRESS PERIOD   5
 UBDSV1 SAVING "FLOW RIGHT FACE " ON UNIT  53 AT TIME STEP 89, STRESS PERIOD   5
 UBDSV1 SAVING "FLOW FRONT FACE " ON UNIT  53 AT TIME STEP 89, STRESS PERIOD   5
 UBDSV1 SAVING "FLOW LOWER FACE " ON UNIT  53 AT TIME STEP 89, STRESS PERIOD   5
1
              HEAD IN LAYER   1 AT END OF TIME STEP  89 IN STRESS PERIOD    5
  ---------------------------------------------------------------------------

            1           2           3           4           5           6           7           8           9          10
 ........................................................................................................................
   1    9.997       8.906       7.804       6.700       5.600       4.505       3.408       2.298       1.166      1.6045E-03
   2    9.997       8.899       7.790       6.680       5.578       4.483       3.388       2.284       1.158      1.5933E-03
   3    9.997       8.888       7.769       6.652       5.544       4.449       3.359       2.262       1.146      1.5767E-03
   4    9.997       8.880       7.753       6.630       5.519       4.423       3.337       2.246       1.138      1.5643E-03
   5    9.997       8.881       7.753       6.629       5.518       4.423       3.337       2.246       1.138      1.5642E-03
   6    9.997       8.891       7.774       6.658       5.551       4.456       3.365       2.267       1.149      1.5808E-03
   7    9.997       8.911       7.811       6.709       5.611       4.516       3.418       2.306       1.170      1.6111E-03
   8    9.997       8.934       7.856       6.770       5.681       4.587       3.480       2.352       1.195      1.6472E-03
   9    9.997       8.953       7.894       6.823       5.742       4.648       3.534       2.392       1.216      1.6783E-03
  10    9.998       8.965       7.916       6.854       5.777       4.683       3.565       2.415       1.229      1.6962E-03
1
              HEAD IN LAYER   2 AT END OF TIME STEP  89 IN STRESS PERIOD    5
  ---------------------------------------------------------------------------

            1           2           3           4           5           6           7           8           9          10
 ........................................................................................................................
   1    9.997       8.905       7.803       6.699       5.599       4.504       3.406       2.296       1.164      3.1973E-03
   2    9.997       8.898       7.789       6.680       5.577       4.482       3.387       2.282       1.157      3.1766E-03
   3    9.997       8.888       7.769       6.652       5.545       4.450       3.359       2.262       1.145      3.1460E-03
   4    9.997       8.880       7.754       6.631       5.521       4.425       3.338       2.246       1.137      3.1229E-03
   5    9.997       8.881       7.755       6.632       5.521       4.425       3.338       2.246       1.137      3.1233E-03
   6    9.997       8.891       7.775       6.659       5.553       4.457       3.366       2.267       1.148      3.1545E-03
   7    9.997       8.910       7.811       6.710       5.611       4.516       3.418       2.305       1.169      3.2111E-03
   8    9.997       8.933       7.855       6.770       5.680       4.585       3.479       2.351       1.193      3.2779E-03
   9    9.997       8.952       7.892       6.821       5.740       4.646       3.532       2.390       1.214      3.3359E-03
  10    9.997       8.963       7.914       6.851       5.774       4.680       3.562       2.412       1.226      3.3693E-03
1
              HEAD IN LAYER   3 AT END OF TIME STEP  89 IN STRESS PERIOD    5
  ---------------------------------------------------------------------------

            1           2           3           4           5           6           7           8           9          10
 ........................................................................................................................
   1    9.997       8.904       7.802       6.698       5.598       4.503       3.405       2.295       1.163      3.4472E-03
   2    9.997       8.898       7.789       6.680       5.577       4.482       3.387       2.281       1.155      3.4255E-03
   3    9.997       8.888       7.770       6.653       5.546       4.450       3.359       2.261       1.144      3.3935E-03
   4    9.997       8.880       7.755       6.633       5.522       4.426       3.338       2.246       1.136      3.3694E-03
   5    9.997       8.881       7.756       6.633       5.523       4.427       3.339       2.246       1.137      3.3702E-03
   6    9.997       8.891       7.775       6.661       5.554       4.458       3.367       2.267       1.148      3.4033E-03
   7    9.997       8.910       7.812       6.710       5.612       4.516       3.417       2.305       1.168      3.4632E-03
   8    9.997       8.932       7.854       6.769       5.680       4.584       3.477       2.349       1.192      3.5338E-03
   9    9.997       8.951       7.891       6.820       5.738       4.644       3.529       2.388       1.212      3.5952E-03
  10    9.997       8.962       7.912       6.849       5.772       4.678       3.559       2.410       1.224      3.6306E-03
1
              HEAD IN LAYER   4 AT END OF TIME STEP  89 IN STRESS PERIOD    5
  ---------------------------------------------------------------------------

            1           2           3           4           5           6           7           8           9          10
 ........................................................................................................................
   1    9.997       8.904       7.802       6.698       5.598       4.502       3.404       2.294       1.162      3.4717E-03
   2    9.997       8.897       7.789       6.680       5.577       4.481       3.386       2.281       1.155      3.4501E-03
   3    9.997       8.888       7.770       6.653       5.546       4.450       3.359       2.261       1.144      3.4184E-03
   4    9.997       8.880       7.755       6.633       5.523       4.427       3.339       2.246       1.136      3.3945E-03
   5    9.997       8.881       7.756       6.634       5.524       4.427       3.339       2.246       1.136      3.3954E-03
   6    9.997       8.891       7.776       6.661       5.555       4.459       3.367       2.267       1.147      3.4285E-03
   7    9.997       8.910       7.812       6.711       5.612       4.516       3.417       2.304       1.167      3.4884E-03
   8    9.997       8.932       7.854       6.769       5.679       4.584       3.477       2.348       1.191      3.5589E-03
   9    9.997       8.951       7.891       6.819       5.737       4.643       3.528       2.386       1.212      3.6203E-03
  10    9.997       8.962       7.912       6.848       5.771       4.676       3.558       2.409       1.223      3.6556E-03

 HEAD WILL BE SAVED ON UNIT   51 AT END OF TIME STEP   89, STRESS PERIOD    5

 DRAWDOWN WILL BE SAVED ON UNIT   52 AT END OF TIME STEP   89, STRESS PERIOD    5
1
  VOLUMETRIC BUDGET FOR ENTIRE MODEL AT END OF TIME STEP   89, STRESS PERIOD   5
  ------------------------------------------------------------------------------

     CUMULATIVE VOLUMES      L**3       RATES FOR THIS TIME STEP      L**3/T
     ------------------                 ------------------------

           IN:                                      IN:
           ---                                      ---
             STORAGE =      534118.8750               STORAGE =          21.1700
       CONSTANT HEAD =           0.0000         CONSTANT HEAD =           0.0000
               WELLS =           0.0000                 WELLS =           0.0000
     HEAD DEP BOUNDS =      139597.8125       HEAD DEP BOUNDS =         646.2448

            TOTAL IN =      673716.6875              TOTAL IN =         667.4148

          OUT:                                     OUT:
          ----                                     ----
             STORAGE =       16404.7988               STORAGE =          78.6830
       CONSTANT HEAD =           0.0000         CONSTANT HEAD =           0.0000
               WELLS =      100000.0000                 WELLS =           0.0000
     HEAD DEP BOUNDS =      557313.4375       HEAD DEP BOUNDS =         588.7250

           TOTAL OUT =      673718.2500             TOTAL OUT =         667.4080

            IN - OUT =          -1.5625              IN - OUT =       6.8359E-03

 PERCENT DISCREPANCY =          -0.00     PERCENT DISCREPANCY =           0.00






         TIME SUMMARY AT END OF TIME STEP   89 IN STRESS PERIOD    5
                    SECONDS     MINUTES      HOURS       DAYS        YEARS
                    -----------------------------------------------------------
   TIME STEP LENGTH  86400.      1440.0      24.000      1.0000     2.73785E-03
 STRESS PERIOD TIME 7.68960E+06 1.28160E+05  2136.0      89.000     0.24367    
         TOTAL TIME 3.36960E+07 5.61600E+05  9360.0      390.00      1.0678    
1
 
 SOLVING FOR HEAD 

 OUTPUT CONTROL FOR STRESS PERIOD    5   TIME STEP   90
    SAVE HEAD FOR ALL LAYERS
    SAVE DRAWDOWN FOR ALL LAYERS
    SAVE BUDGET
    PRINT HEAD FOR ALL LAYERS
    PRINT BUDGET
 UBDSV1 SAVING "         STORAGE" ON UNIT  53 AT TIME STEP 90, STRESS PERIOD   5
 UBDSV2 SAVING "   CONSTANT HEAD" ON UNIT  53 AT TIME STEP 90, STRESS PERIOD   5
 UBDSV1 SAVING "FLOW RIGHT FACE " ON UNIT  53 AT TIME STEP 90, STRESS PERIOD   5
 UBDSV1 SAVING "FLOW FRONT FACE " ON UNIT  53 AT TIME STEP 90, STRESS PERIOD   5
 UBDSV1 SAVING "FLOW LOWER FACE " ON UNIT  53 AT TIME STEP 90, STRESS PERIOD   5
1
              HEAD IN LAYER   1 AT END OF TIME STEP  90 IN STRESS PERIOD    5
  ---------------------------------------------------------------------------

            1           2           3           4           5           6           7           8           9          10
 ........................................................................................................................
   1    9.997       8.906       7.804       6.700       5.600       4.505       3.408       2.298       1.165      1.6039E-03
   2    9.997       8.899       7.790       6.681       5.579       4.483       3.389       2.284       1.158      1.5930E-03
   3    9.997       8.889       7.771       6.654       5.546       4.451       3.360       2.263       1.147      1.5768E-03
   4    9.997       8.882       7.756       6.633       5.522       4.426       3.339       2.247       1.138      1.5648E-03
   5    9.997       8.882       7.756       6.633       5.522       4.426       3.339       2.247       1.138      1.5650E-03
   6    9.997       8.892       7.776       6.660       5.554       4.458       3.367       2.268       1.150      1.5815E-03
   7    9.997       8.911       7.813       6.711       5.612       4.517       3.419       2.307       1.170      1.6112E-03
   8    9.997       8.934       7.856       6.771       5.681       4.587       3.480       2.352       1.195      1.6466E-03
   9    9.997       8.953       7.894       6.823       5.741       4.647       3.533       2.391       1.216      1.6773E-03
  10    9.998       8.965       7.915       6.852       5.776       4.681       3.563       2.414       1.228      1.6949E-03
1
              HEAD IN LAYER   2 AT END OF TIME STEP  90 IN STRESS PERIOD    5
  ---------------------------------------------------------------------------

            1           2           3           4           5           6           7           8           9          10
 ........................................................................................................................
   1    9.997       8.905       7.803       6.699       5.599       4.504       3.406       2.296       1.164      3.1962E-03
   2    9.997       8.899       7.790       6.681       5.578       4.483       3.388       2.282       1.156      3.1761E-03
   3    9.997       8.889       7.771       6.654       5.547       4.451       3.360       2.262       1.146      3.1464E-03
   4    9.997       8.881       7.757       6.634       5.524       4.428       3.340       2.247       1.137      3.1241E-03
   5    9.997       8.882       7.757       6.635       5.524       4.428       3.340       2.247       1.138      3.1249E-03
   6    9.997       8.892       7.777       6.662       5.556       4.460       3.368       2.268       1.149      3.1556E-03
   7    9.997       8.911       7.813       6.712       5.613       4.518       3.419       2.306       1.169      3.2113E-03
   8    9.997       8.933       7.855       6.770       5.681       4.585       3.478       2.350       1.193      3.2769E-03
   9    9.997       8.952       7.892       6.821       5.739       4.644       3.530       2.389       1.214      3.3340E-03
  10    9.997       8.963       7.913       6.850       5.773       4.678       3.560       2.411       1.226      3.3668E-03
1
              HEAD IN LAYER   3 AT END OF TIME STEP  90 IN STRESS PERIOD    5
  ---------------------------------------------------------------------------

            1           2           3           4           5           6           7           8           9          10
 ........................................................................................................................
   1    9.997       8.905       7.802       6.698       5.599       4.503       3.405       2.294       1.162      3.4461E-03
   2    9.997       8.898       7.790       6.681       5.578       4.482       3.387       2.281       1.155      3.4250E-03
   3    9.997       8.889       7.771       6.655       5.548       4.452       3.360       2.261       1.145      3.3940E-03
   4    9.997       8.881       7.757       6.636       5.525       4.429       3.340       2.247       1.137      3.3707E-03
   5    9.997       8.882       7.758       6.636       5.526       4.430       3.341       2.247       1.137      3.3718E-03
   6    9.997       8.892       7.778       6.663       5.557       4.461       3.368       2.268       1.148      3.4045E-03
   7    9.997       8.910       7.813       6.712       5.614       4.518       3.418       2.305       1.168      3.4634E-03
   8    9.997       8.932       7.855       6.769       5.680       4.585       3.477       2.349       1.191      3.5328E-03
   9    9.997       8.951       7.891       6.819       5.737       4.643       3.528       2.386       1.212      3.5932E-03
  10    9.997       8.962       7.912       6.848       5.771       4.676       3.557       2.408       1.223      3.6279E-03
1
              HEAD IN LAYER   4 AT END OF TIME STEP  90 IN STRESS PERIOD    5
  ---------------------------------------------------------------------------

            1           2           3           4           5           6           7           8           9          10
 ........................................................................................................................
   1    9.997       8.904       7.802       6.698       5.598       4.502       3.404       2.294       1.161      3.4706E-03
   2    9.997       8.898       7.790       6.681       5.578       4.482       3.386       2.281       1.154      3.4496E-03
   3    9.997       8.888       7.771       6.655       5.548       4.452       3.360       2.261       1.144      3.4188E-03
   4    9.997       8.881       7.758       6.636       5.526       4.430       3.340       2.247       1.136      3.3958E-03
   5    9.997       8.882       7.758       6.637       5.527       4.430       3.341       2.247       1.137      3.3970E-03
   6    9.997       8.892       7.778       6.664       5.558       4.462       3.369       2.268       1.148      3.4298E-03
   7    9.997       8.910       7.813       6.712       5.614       4.518       3.418       2.305       1.167      3.4887E-03
   8    9.997       8.932       7.854       6.769       5.680       4.584       3.476       2.348       1.191      3.5580E-03
   9    9.997       8.950       7.890       6.819       5.737       4.642       3.527       2.385       1.211      3.6182E-03
  10    9.997       8.961       7.911       6.847       5.770       4.675       3.556       2.407       1.222      3.6530E-03

 HEAD WILL BE SAVED ON UNIT   51 AT END OF TIME STEP   90, STRESS PERIOD    5

 DRAWDOWN WILL BE SAVED ON UNIT   52 AT END OF TIME STEP   90, STRESS PERIOD    5
1
  VOLUMETRIC BUDGET FOR ENTIRE MODEL AT END OF TIME STEP   90, STRESS PERIOD   5
  ------------------------------------------------------------------------------

     CUMULATIVE VOLUMES      L**3       RATES FOR THIS TIME STEP      L**3/T
     ------------------                 ------------------------

           IN:                                      IN:
           ---                                      ---
             STORAGE =      534139.3125               STORAGE =          20.4507
       CONSTANT HEAD =           0.0000         CONSTANT HEAD =           0.0000
               WELLS =           0.0000                 WELLS =           0.0000
     HEAD DEP BOUNDS =      140243.7500       HEAD DEP BOUNDS =         645.9379

            TOTAL IN =      674383.0625              TOTAL IN =         666.3887

          OUT:                                     OUT:
          ----                                     ----
             STORAGE =       16482.5020               STORAGE =          77.7036
       CONSTANT HEAD =           0.0000         CONSTANT HEAD =           0.0000
               WELLS =      100000.0000                 WELLS =           0.0000
     HEAD DEP BOUNDS =      557902.1250       HEAD DEP BOUNDS =         588.6816

           TOTAL OUT =      674384.6250             TOTAL OUT =         666.3852

            IN - OUT =          -1.5625              IN - OUT =       3.4790E-03

 PERCENT DISCREPANCY =          -0.00     PERCENT DISCREPANCY =           0.00






         TIME SUMMARY AT END OF TIME STEP   90 IN STRESS PERIOD    5
                    SECONDS     MINUTES      HOURS       DAYS        YEARS
                    -----------------------------------------------------------
   TIME STEP LENGTH  86400.      1440.0      24.000      1.0000     2.73785E-03
 STRESS PERIOD TIME 7.77600E+06 1.29600E+05  2160.0      90.000     0.24641    
         TOTAL TIME 3.37824E+07 5.63040E+05  9384.0      391.00      1.0705    
1
 
 SOLVING FOR HEAD 

 OUTPUT CONTROL FOR STRESS PERIOD    5   TIME STEP   91
    SAVE HEAD FOR ALL LAYERS
    SAVE DRAWDOWN FOR ALL LAYERS
    SAVE BUDGET
    PRINT HEAD FOR ALL LAYERS
    PRINT BUDGET
 UBDSV1 SAVING "         STORAGE" ON UNIT  53 AT TIME STEP 91, STRESS PERIOD   5
 UBDSV2 SAVING "   CONSTANT HEAD" ON UNIT  53 AT TIME STEP 91, STRESS PERIOD   5
 UBDSV1 SAVING "FLOW RIGHT FACE " ON UNIT  53 AT TIME STEP 91, STRESS PERIOD   5
 UBDSV1 SAVING "FLOW FRONT FACE " ON UNIT  53 AT TIME STEP 91, STRESS PERIOD   5
 UBDSV1 SAVING "FLOW LOWER FACE " ON UNIT  53 AT TIME STEP 91, STRESS PERIOD   5
1
              HEAD IN LAYER   1 AT END OF TIME STEP  91 IN STRESS PERIOD    5
  ---------------------------------------------------------------------------

            1           2           3           4           5           6           7           8           9          10
 ........................................................................................................................
   1    9.997       8.907       7.804       6.700       5.601       4.505       3.407       2.297       1.165      1.6034E-03
   2    9.997       8.900       7.791       6.682       5.580       4.484       3.389       2.284       1.158      1.5927E-03
   3    9.997       8.890       7.772       6.656       5.549       4.453       3.361       2.263       1.147      1.5770E-03
   4    9.997       8.883       7.758       6.635       5.525       4.429       3.341       2.248       1.139      1.5655E-03
   5    9.997       8.883       7.758       6.636       5.525       4.429       3.341       2.249       1.139      1.5659E-03
   6    9.997       8.893       7.778       6.663       5.557       4.461       3.369       2.269       1.150      1.5820E-03
   7    9.997       8.912       7.814       6.713       5.614       4.519       3.420       2.307       1.170      1.6112E-03
   8    9.997       8.934       7.856       6.771       5.682       4.587       3.480       2.351       1.194      1.6462E-03
   9    9.997       8.953       7.893       6.822       5.740       4.646       3.532       2.390       1.215      1.6763E-03
  10    9.998       8.964       7.914       6.851       5.774       4.680       3.561       2.412       1.227      1.6935E-03
1
              HEAD IN LAYER   2 AT END OF TIME STEP  91 IN STRESS PERIOD    5
  ---------------------------------------------------------------------------

            1           2           3           4           5           6           7           8           9          10
 ........................................................................................................................
   1    9.997       8.906       7.803       6.700       5.600       4.504       3.406       2.295       1.163      3.1952E-03
   2    9.997       8.899       7.791       6.682       5.579       4.483       3.388       2.282       1.156      3.1756E-03
   3    9.997       8.890       7.772       6.656       5.550       4.453       3.361       2.263       1.146      3.1468E-03
   4    9.997       8.883       7.759       6.637       5.527       4.430       3.341       2.248       1.138      3.1254E-03
   5    9.997       8.883       7.759       6.638       5.528       4.431       3.342       2.249       1.138      3.1264E-03
   6    9.997       8.893       7.779       6.665       5.559       4.462       3.370       2.269       1.149      3.1568E-03
   7    9.997       8.911       7.814       6.713       5.615       4.519       3.420       2.306       1.169      3.2115E-03
   8    9.997       8.933       7.856       6.771       5.681       4.586       3.478       2.350       1.193      3.2760E-03
   9    9.997       8.952       7.892       6.820       5.738       4.643       3.529       2.387       1.213      3.3321E-03
  10    9.997       8.963       7.912       6.849       5.771       4.677       3.558       2.409       1.225      3.3644E-03
1
              HEAD IN LAYER   3 AT END OF TIME STEP  91 IN STRESS PERIOD    5
  ---------------------------------------------------------------------------

            1           2           3           4           5           6           7           8           9          10
 ........................................................................................................................
   1    9.997       8.905       7.803       6.699       5.599       4.503       3.404       2.294       1.162      3.4450E-03
   2    9.997       8.899       7.791       6.682       5.579       4.483       3.387       2.281       1.155      3.4245E-03
   3    9.997       8.889       7.773       6.657       5.550       4.454       3.361       2.262       1.145      3.3944E-03
   4    9.997       8.882       7.759       6.638       5.528       4.432       3.342       2.248       1.137      3.3721E-03
   5    9.997       8.883       7.760       6.639       5.529       4.433       3.343       2.249       1.138      3.3734E-03
   6    9.997       8.893       7.780       6.666       5.560       4.464       3.370       2.269       1.149      3.4057E-03
   7    9.997       8.911       7.814       6.714       5.615       4.519       3.419       2.305       1.168      3.4637E-03
   8    9.997       8.932       7.855       6.770       5.680       4.585       3.477       2.348       1.191      3.5319E-03
   9    9.997       8.951       7.890       6.819       5.737       4.641       3.527       2.385       1.211      3.5912E-03
  10    9.997       8.961       7.911       6.847       5.769       4.674       3.556       2.407       1.223      3.6254E-03
1
              HEAD IN LAYER   4 AT END OF TIME STEP  91 IN STRESS PERIOD    5
  ---------------------------------------------------------------------------

            1           2           3           4           5           6           7           8           9          10
 ........................................................................................................................
   1    9.997       8.904       7.802       6.699       5.599       4.502       3.404       2.293       1.161      3.4696E-03
   2    9.997       8.898       7.790       6.682       5.579       4.483       3.387       2.280       1.154      3.4492E-03
   3    9.997       8.889       7.773       6.657       5.551       4.454       3.361       2.262       1.144      3.4193E-03
   4    9.997       8.882       7.760       6.639       5.529       4.432       3.342       2.248       1.137      3.3972E-03
   5    9.997       8.883       7.761       6.640       5.530       4.433       3.343       2.249       1.137      3.3987E-03
   6    9.997       8.893       7.780       6.667       5.561       4.464       3.370       2.269       1.148      3.4310E-03
   7    9.997       8.911       7.814       6.714       5.616       4.519       3.419       2.305       1.168      3.4889E-03
   8    9.997       8.932       7.855       6.770       5.680       4.584       3.476       2.347       1.190      3.5570E-03
   9    9.997       8.950       7.890       6.818       5.736       4.641       3.526       2.384       1.210      3.6163E-03
  10    9.997       8.961       7.910       6.846       5.768       4.673       3.554       2.406       1.222      3.6504E-03

 HEAD WILL BE SAVED ON UNIT   51 AT END OF TIME STEP   91, STRESS PERIOD    5

 DRAWDOWN WILL BE SAVED ON UNIT   52 AT END OF TIME STEP   91, STRESS PERIOD    5
1
  VOLUMETRIC BUDGET FOR ENTIRE MODEL AT END OF TIME STEP   91, STRESS PERIOD   5
  ------------------------------------------------------------------------------

     CUMULATIVE VOLUMES      L**3       RATES FOR THIS TIME STEP      L**3/T
     ------------------                 ------------------------

           IN:                                      IN:
           ---                                      ---
             STORAGE =      534159.0625               STORAGE =          19.7508
       CONSTANT HEAD =           0.0000         CONSTANT HEAD =           0.0000
               WELLS =           0.0000                 WELLS =           0.0000
     HEAD DEP BOUNDS =      140889.3750       HEAD DEP BOUNDS =         645.6266

            TOTAL IN =      675048.4375              TOTAL IN =         665.3774

          OUT:                                     OUT:
          ----                                     ----
             STORAGE =       16559.2441               STORAGE =          76.7423
       CONSTANT HEAD =           0.0000         CONSTANT HEAD =           0.0000
               WELLS =      100000.0000                 WELLS =           0.0000
     HEAD DEP BOUNDS =      558490.7500       HEAD DEP BOUNDS =         588.6436

           TOTAL OUT =      675050.0000             TOTAL OUT =         665.3859

            IN - OUT =          -1.5625              IN - OUT =      -8.4229E-03

 PERCENT DISCREPANCY =          -0.00     PERCENT DISCREPANCY =          -0.00






         TIME SUMMARY AT END OF TIME STEP   91 IN STRESS PERIOD    5
                    SECONDS     MINUTES      HOURS       DAYS        YEARS
                    -----------------------------------------------------------
   TIME STEP LENGTH  86400.      1440.0      24.000      1.0000     2.73785E-03
 STRESS PERIOD TIME 7.86240E+06 1.31040E+05  2184.0      91.000     0.24914    
         TOTAL TIME 3.38688E+07 5.64480E+05  9408.0      392.00      1.0732    
1
 
 SOLVING FOR HEAD 

 OUTPUT CONTROL FOR STRESS PERIOD    5   TIME STEP   92
    SAVE HEAD FOR ALL LAYERS
    SAVE DRAWDOWN FOR ALL LAYERS
    SAVE BUDGET
    PRINT HEAD FOR ALL LAYERS
    PRINT BUDGET
 UBDSV1 SAVING "         STORAGE" ON UNIT  53 AT TIME STEP 92, STRESS PERIOD   5
 UBDSV2 SAVING "   CONSTANT HEAD" ON UNIT  53 AT TIME STEP 92, STRESS PERIOD   5
 UBDSV1 SAVING "FLOW RIGHT FACE " ON UNIT  53 AT TIME STEP 92, STRESS PERIOD   5
 UBDSV1 SAVING "FLOW FRONT FACE " ON UNIT  53 AT TIME STEP 92, STRESS PERIOD   5
 UBDSV1 SAVING "FLOW LOWER FACE " ON UNIT  53 AT TIME STEP 92, STRESS PERIOD   5
1
              HEAD IN LAYER   1 AT END OF TIME STEP  92 IN STRESS PERIOD    5
  ---------------------------------------------------------------------------

            1           2           3           4           5           6           7           8           9          10
 ........................................................................................................................
   1    9.997       8.907       7.805       6.701       5.601       4.505       3.407       2.297       1.164      1.6028E-03
   2    9.997       8.900       7.792       6.683       5.581       4.485       3.389       2.283       1.157      1.5925E-03
   3    9.997       8.891       7.774       6.658       5.551       4.454       3.363       2.264       1.147      1.5773E-03
   4    9.997       8.884       7.760       6.638       5.528       4.432       3.343       2.249       1.139      1.5662E-03
   5    9.997       8.884       7.761       6.639       5.529       4.432       3.343       2.250       1.139      1.5667E-03
   6    9.997       8.894       7.780       6.666       5.560       4.464       3.371       2.270       1.151      1.5826E-03
   7    9.997       8.913       7.815       6.715       5.616       4.520       3.421       2.307       1.170      1.6115E-03
   8    9.997       8.934       7.857       6.772       5.682       4.587       3.479       2.351       1.194      1.6456E-03
   9    9.997       8.953       7.893       6.821       5.740       4.645       3.530       2.389       1.214      1.6753E-03
  10    9.997       8.964       7.914       6.850       5.773       4.678       3.560       2.411       1.226      1.6923E-03
1
              HEAD IN LAYER   2 AT END OF TIME STEP  92 IN STRESS PERIOD    5
  ---------------------------------------------------------------------------

            1           2           3           4           5           6           7           8           9          10
 ........................................................................................................................
   1    9.997       8.906       7.804       6.700       5.600       4.504       3.406       2.295       1.163      3.1942E-03
   2    9.997       8.900       7.792       6.683       5.580       4.484       3.388       2.282       1.156      3.1752E-03
   3    9.997       8.890       7.774       6.658       5.552       4.455       3.362       2.263       1.146      3.1473E-03
   4    9.997       8.884       7.761       6.640       5.530       4.433       3.343       2.249       1.138      3.1266E-03
   5    9.997       8.884       7.762       6.641       5.531       4.434       3.344       2.250       1.139      3.1279E-03
   6    9.997       8.894       7.781       6.668       5.562       4.465       3.372       2.270       1.150      3.1579E-03
   7    9.997       8.912       7.815       6.715       5.617       4.520       3.420       2.306       1.169      3.2118E-03
   8    9.997       8.933       7.856       6.771       5.681       4.586       3.478       2.349       1.192      3.2751E-03
   9    9.997       8.952       7.891       6.820       5.738       4.642       3.528       2.386       1.212      3.3302E-03
  10    9.997       8.962       7.912       6.848       5.770       4.675       3.557       2.408       1.224      3.3620E-03
1
              HEAD IN LAYER   3 AT END OF TIME STEP  92 IN STRESS PERIOD    5
  ---------------------------------------------------------------------------

            1           2           3           4           5           6           7           8           9          10
 ........................................................................................................................
   1    9.997       8.905       7.803       6.699       5.599       4.503       3.404       2.294       1.161      3.4440E-03
   2    9.997       8.899       7.791       6.683       5.580       4.484       3.387       2.281       1.155      3.4241E-03
   3    9.997       8.890       7.774       6.659       5.552       4.455       3.362       2.263       1.145      3.3950E-03
   4    9.997       8.884       7.761       6.641       5.531       4.434       3.344       2.249       1.138      3.3734E-03
   5    9.997       8.884       7.762       6.642       5.533       4.436       3.345       2.250       1.138      3.3751E-03
   6    9.997       8.894       7.781       6.669       5.563       4.466       3.372       2.270       1.149      3.4070E-03
   7    9.997       8.912       7.815       6.715       5.617       4.521       3.420       2.306       1.168      3.4640E-03
   8    9.997       8.933       7.855       6.770       5.681       4.585       3.477       2.348       1.191      3.5310E-03
   9    9.997       8.951       7.890       6.818       5.736       4.640       3.526       2.384       1.210      3.5892E-03
  10    9.997       8.961       7.910       6.846       5.768       4.673       3.554       2.405       1.222      3.6229E-03
1
              HEAD IN LAYER   4 AT END OF TIME STEP  92 IN STRESS PERIOD    5
  ---------------------------------------------------------------------------

            1           2           3           4           5           6           7           8           9          10
 ........................................................................................................................
   1    9.997       8.905       7.803       6.699       5.599       4.502       3.404       2.293       1.161      3.4686E-03
   2    9.997       8.899       7.791       6.683       5.580       4.483       3.387       2.280       1.154      3.4488E-03
   3    9.997       8.890       7.774       6.659       5.553       4.456       3.362       2.262       1.144      3.4198E-03
   4    9.997       8.883       7.762       6.642       5.532       4.435       3.344       2.249       1.137      3.3985E-03
   5    9.997       8.884       7.763       6.643       5.534       4.436       3.346       2.250       1.138      3.4003E-03
   6    9.997       8.894       7.782       6.669       5.564       4.467       3.372       2.270       1.149      3.4323E-03
   7    9.997       8.912       7.815       6.716       5.617       4.521       3.420       2.305       1.168      3.4892E-03
   8    9.997       8.932       7.855       6.770       5.680       4.584       3.476       2.347       1.190      3.5561E-03
   9    9.997       8.950       7.890       6.818       5.735       4.640       3.525       2.383       1.210      3.6143E-03
  10    9.997       8.960       7.909       6.845       5.767       4.671       3.553       2.404       1.221      3.6479E-03

 HEAD WILL BE SAVED ON UNIT   51 AT END OF TIME STEP   92, STRESS PERIOD    5

 DRAWDOWN WILL BE SAVED ON UNIT   52 AT END OF TIME STEP   92, STRESS PERIOD    5
1
  VOLUMETRIC BUDGET FOR ENTIRE MODEL AT END OF TIME STEP   92, STRESS PERIOD   5
  ------------------------------------------------------------------------------

     CUMULATIVE VOLUMES      L**3       RATES FOR THIS TIME STEP      L**3/T
     ------------------                 ------------------------

           IN:                                      IN:
           ---                                      ---
             STORAGE =      534178.1250               STORAGE =          19.0790
       CONSTANT HEAD =           0.0000         CONSTANT HEAD =           0.0000
               WELLS =           0.0000                 WELLS =           0.0000
     HEAD DEP BOUNDS =      141534.7188       HEAD DEP BOUNDS =         645.3382

            TOTAL IN =      675712.8750              TOTAL IN =         664.4172

          OUT:                                     OUT:
          ----                                     ----
             STORAGE =       16635.0391               STORAGE =          75.7957
       CONSTANT HEAD =           0.0000         CONSTANT HEAD =           0.0000
               WELLS =      100000.0000                 WELLS =           0.0000
     HEAD DEP BOUNDS =      559079.3750       HEAD DEP BOUNDS =         588.6127

           TOTAL OUT =      675714.4375             TOTAL OUT =         664.4084

            IN - OUT =          -1.5625              IN - OUT =       8.7891E-03

 PERCENT DISCREPANCY =          -0.00     PERCENT DISCREPANCY =           0.00






         TIME SUMMARY AT END OF TIME STEP   92 IN STRESS PERIOD    5
                    SECONDS     MINUTES      HOURS       DAYS        YEARS
                    -----------------------------------------------------------
   TIME STEP LENGTH  86400.      1440.0      24.000      1.0000     2.73785E-03
 STRESS PERIOD TIME 7.94880E+06 1.32480E+05  2208.0      92.000     0.25188    
         TOTAL TIME 3.39552E+07 5.65920E+05  9432.0      393.00      1.0760    
1
 
 SOLVING FOR HEAD 

 OUTPUT CONTROL FOR STRESS PERIOD    5   TIME STEP   93
    SAVE HEAD FOR ALL LAYERS
    SAVE DRAWDOWN FOR ALL LAYERS
    SAVE BUDGET
    PRINT HEAD FOR ALL LAYERS
    PRINT BUDGET
 UBDSV1 SAVING "         STORAGE" ON UNIT  53 AT TIME STEP 93, STRESS PERIOD   5
 UBDSV2 SAVING "   CONSTANT HEAD" ON UNIT  53 AT TIME STEP 93, STRESS PERIOD   5
 UBDSV1 SAVING "FLOW RIGHT FACE " ON UNIT  53 AT TIME STEP 93, STRESS PERIOD   5
 UBDSV1 SAVING "FLOW FRONT FACE " ON UNIT  53 AT TIME STEP 93, STRESS PERIOD   5
 UBDSV1 SAVING "FLOW LOWER FACE " ON UNIT  53 AT TIME STEP 93, STRESS PERIOD   5
1
              HEAD IN LAYER   1 AT END OF TIME STEP  93 IN STRESS PERIOD    5
  ---------------------------------------------------------------------------

            1           2           3           4           5           6           7           8           9          10
 ........................................................................................................................
   1    9.997       8.907       7.805       6.701       5.601       4.505       3.407       2.296       1.164      1.6024E-03
   2    9.997       8.901       7.793       6.684       5.582       4.485       3.389       2.283       1.157      1.5923E-03
   3    9.997       8.892       7.775       6.660       5.553       4.456       3.364       2.264       1.147      1.5776E-03
   4    9.997       8.885       7.762       6.641       5.531       4.434       3.345       2.250       1.140      1.5668E-03
   5    9.997       8.885       7.763       6.642       5.532       4.435       3.346       2.251       1.140      1.5674E-03
   6    9.997       8.895       7.782       6.669       5.563       4.466       3.373       2.271       1.151      1.5833E-03
   7    9.997       8.913       7.817       6.716       5.618       4.522       3.422       2.308       1.171      1.6116E-03
   8    9.997       8.934       7.857       6.772       5.683       4.587       3.479       2.351       1.194      1.6452E-03
   9    9.997       8.953       7.893       6.821       5.739       4.644       3.529       2.388       1.214      1.6743E-03
  10    9.997       8.963       7.913       6.849       5.771       4.676       3.558       2.409       1.225      1.6909E-03
1
              HEAD IN LAYER   2 AT END OF TIME STEP  93 IN STRESS PERIOD    5
  ---------------------------------------------------------------------------

            1           2           3           4           5           6           7           8           9          10
 ........................................................................................................................
   1    9.997       8.906       7.804       6.701       5.600       4.504       3.405       2.295       1.163      3.1933E-03
   2    9.997       8.900       7.793       6.684       5.581       4.485       3.388       2.282       1.156      3.1748E-03
   3    9.997       8.891       7.775       6.660       5.554       4.457       3.364       2.264       1.146      3.1478E-03
   4    9.997       8.885       7.763       6.643       5.533       4.436       3.345       2.250       1.139      3.1278E-03
   5    9.997       8.885       7.764       6.644       5.534       4.437       3.346       2.251       1.139      3.1294E-03
   6    9.997       8.895       7.783       6.670       5.564       4.467       3.373       2.271       1.150      3.1591E-03
   7    9.997       8.913       7.817       6.717       5.618       4.522       3.421       2.307       1.169      3.2120E-03
   8    9.997       8.933       7.856       6.771       5.682       4.586       3.478       2.349       1.192      3.2743E-03
   9    9.997       8.951       7.891       6.819       5.737       4.641       3.527       2.385       1.212      3.3284E-03
  10    9.997       8.962       7.911       6.847       5.768       4.673       3.555       2.406       1.223      3.3596E-03
1
              HEAD IN LAYER   3 AT END OF TIME STEP  93 IN STRESS PERIOD    5
  ---------------------------------------------------------------------------

            1           2           3           4           5           6           7           8           9          10
 ........................................................................................................................
   1    9.997       8.905       7.804       6.700       5.600       4.503       3.404       2.293       1.161      3.4431E-03
   2    9.997       8.899       7.792       6.684       5.581       4.484       3.388       2.281       1.155      3.4238E-03
   3    9.997       8.891       7.776       6.661       5.554       4.457       3.364       2.263       1.145      3.3955E-03
   4    9.997       8.885       7.763       6.644       5.534       4.437       3.346       2.250       1.138      3.3747E-03
   5    9.997       8.885       7.765       6.645       5.536       4.438       3.347       2.251       1.139      3.3767E-03
   6    9.997       8.895       7.783       6.671       5.566       4.468       3.374       2.271       1.149      3.4082E-03
   7    9.997       8.912       7.817       6.717       5.619       4.522       3.421       2.306       1.168      3.4643E-03
   8    9.997       8.933       7.856       6.771       5.681       4.585       3.476       2.347       1.190      3.5301E-03
   9    9.997       8.950       7.890       6.818       5.735       4.639       3.525       2.383       1.210      3.5874E-03
  10    9.997       8.961       7.909       6.845       5.766       4.671       3.552       2.404       1.221      3.6204E-03
1
              HEAD IN LAYER   4 AT END OF TIME STEP  93 IN STRESS PERIOD    5
  ---------------------------------------------------------------------------

            1           2           3           4           5           6           7           8           9          10
 ........................................................................................................................
   1    9.997       8.905       7.803       6.700       5.599       4.503       3.403       2.292       1.160      3.4677E-03
   2    9.997       8.899       7.792       6.684       5.581       4.484       3.387       2.280       1.154      3.4485E-03
   3    9.997       8.891       7.776       6.661       5.555       4.457       3.363       2.263       1.145      3.4204E-03
   4    9.997       8.885       7.764       6.644       5.535       4.437       3.346       2.250       1.138      3.3998E-03
   5    9.997       8.885       7.765       6.646       5.537       4.439       3.348       2.251       1.138      3.4020E-03
   6    9.997       8.895       7.784       6.672       5.566       4.469       3.374       2.271       1.149      3.4335E-03
   7    9.997       8.912       7.817       6.717       5.619       4.522       3.421       2.306       1.168      3.4895E-03
   8    9.997       8.932       7.855       6.771       5.681       4.584       3.476       2.347       1.190      3.5552E-03
   9    9.997       8.950       7.889       6.817       5.734       4.639       3.524       2.382       1.209      3.6124E-03
  10    9.997       8.960       7.909       6.844       5.765       4.670       3.551       2.403       1.220      3.6454E-03

 HEAD WILL BE SAVED ON UNIT   51 AT END OF TIME STEP   93, STRESS PERIOD    5

 DRAWDOWN WILL BE SAVED ON UNIT   52 AT END OF TIME STEP   93, STRESS PERIOD    5
1
  VOLUMETRIC BUDGET FOR ENTIRE MODEL AT END OF TIME STEP   93, STRESS PERIOD   5
  ------------------------------------------------------------------------------

     CUMULATIVE VOLUMES      L**3       RATES FOR THIS TIME STEP      L**3/T
     ------------------                 ------------------------

           IN:                                      IN:
           ---                                      ---
             STORAGE =      534196.5625               STORAGE =          18.4446
       CONSTANT HEAD =           0.0000         CONSTANT HEAD =           0.0000
               WELLS =           0.0000                 WELLS =           0.0000
     HEAD DEP BOUNDS =      142179.7656       HEAD DEP BOUNDS =         645.0454

            TOTAL IN =      676376.3125              TOTAL IN =         663.4900

          OUT:                                     OUT:
          ----                                     ----
             STORAGE =       16709.9316               STORAGE =          74.8927
       CONSTANT HEAD =           0.0000         CONSTANT HEAD =           0.0000
               WELLS =      100000.0000                 WELLS =           0.0000
     HEAD DEP BOUNDS =      559667.9375       HEAD DEP BOUNDS =         588.5840

           TOTAL OUT =      676377.8750             TOTAL OUT =         663.4768

            IN - OUT =          -1.5625              IN - OUT =       1.3184E-02

 PERCENT DISCREPANCY =          -0.00     PERCENT DISCREPANCY =           0.00






         TIME SUMMARY AT END OF TIME STEP   93 IN STRESS PERIOD    5
                    SECONDS     MINUTES      HOURS       DAYS        YEARS
                    -----------------------------------------------------------
   TIME STEP LENGTH  86400.      1440.0      24.000      1.0000     2.73785E-03
 STRESS PERIOD TIME 8.03520E+06 1.33920E+05  2232.0      93.000     0.25462    
         TOTAL TIME 3.40416E+07 5.67360E+05  9456.0      394.00      1.0787    
1
 
 SOLVING FOR HEAD 

 OUTPUT CONTROL FOR STRESS PERIOD    5   TIME STEP   94
    SAVE HEAD FOR ALL LAYERS
    SAVE DRAWDOWN FOR ALL LAYERS
    SAVE BUDGET
    PRINT HEAD FOR ALL LAYERS
    PRINT BUDGET
 UBDSV1 SAVING "         STORAGE" ON UNIT  53 AT TIME STEP 94, STRESS PERIOD   5
 UBDSV2 SAVING "   CONSTANT HEAD" ON UNIT  53 AT TIME STEP 94, STRESS PERIOD   5
 UBDSV1 SAVING "FLOW RIGHT FACE " ON UNIT  53 AT TIME STEP 94, STRESS PERIOD   5
 UBDSV1 SAVING "FLOW FRONT FACE " ON UNIT  53 AT TIME STEP 94, STRESS PERIOD   5
 UBDSV1 SAVING "FLOW LOWER FACE " ON UNIT  53 AT TIME STEP 94, STRESS PERIOD   5
1
              HEAD IN LAYER   1 AT END OF TIME STEP  94 IN STRESS PERIOD    5
  ---------------------------------------------------------------------------

            1           2           3           4           5           6           7           8           9          10
 ........................................................................................................................
   1    9.997       8.907       7.806       6.702       5.602       4.505       3.406       2.296       1.164      1.6018E-03
   2    9.997       8.901       7.794       6.685       5.583       4.486       3.390       2.283       1.157      1.5921E-03
   3    9.997       8.892       7.777       6.662       5.555       4.458       3.365       2.265       1.147      1.5778E-03
   4    9.997       8.886       7.764       6.644       5.534       4.437       3.346       2.251       1.140      1.5673E-03
   5    9.997       8.887       7.765       6.645       5.535       4.438       3.348       2.252       1.141      1.5682E-03
   6    9.997       8.896       7.784       6.671       5.566       4.469       3.375       2.272       1.151      1.5838E-03
   7    9.997       8.914       7.818       6.718       5.620       4.523       3.423       2.308       1.171      1.6117E-03
   8    9.997       8.935       7.858       6.773       5.683       4.587       3.479       2.350       1.193      1.6447E-03
   9    9.997       8.953       7.892       6.820       5.738       4.643       3.528       2.387       1.213      1.6734E-03
  10    9.997       8.963       7.912       6.848       5.770       4.675       3.556       2.408       1.224      1.6897E-03
1
              HEAD IN LAYER   2 AT END OF TIME STEP  94 IN STRESS PERIOD    5
  ---------------------------------------------------------------------------

            1           2           3           4           5           6           7           8           9          10
 ........................................................................................................................
   1    9.997       8.906       7.805       6.701       5.601       4.504       3.405       2.294       1.162      3.1924E-03
   2    9.997       8.900       7.793       6.685       5.582       4.486       3.389       2.282       1.156      3.1745E-03
   3    9.997       8.892       7.777       6.662       5.556       4.458       3.365       2.264       1.146      3.1483E-03
   4    9.997       8.886       7.765       6.645       5.536       4.438       3.347       2.251       1.139      3.1290E-03
   5    9.997       8.887       7.766       6.647       5.537       4.440       3.349       2.252       1.140      3.1309E-03
   6    9.997       8.896       7.785       6.673       5.567       4.470       3.375       2.272       1.151      3.1602E-03
   7    9.997       8.913       7.818       6.718       5.620       4.523       3.422       2.307       1.169      3.2123E-03
   8    9.997       8.934       7.857       6.772       5.682       4.586       3.477       2.348       1.192      3.2735E-03
   9    9.997       8.951       7.891       6.819       5.736       4.640       3.526       2.384       1.211      3.3267E-03
  10    9.997       8.961       7.910       6.845       5.767       4.672       3.553       2.405       1.222      3.3573E-03
1
              HEAD IN LAYER   3 AT END OF TIME STEP  94 IN STRESS PERIOD    5
  ---------------------------------------------------------------------------

            1           2           3           4           5           6           7           8           9          10
 ........................................................................................................................
   1    9.997       8.906       7.804       6.700       5.600       4.503       3.404       2.293       1.161      3.4422E-03
   2    9.997       8.900       7.793       6.685       5.582       4.485       3.388       2.281       1.155      3.4234E-03
   3    9.997       8.892       7.777       6.663       5.556       4.459       3.365       2.264       1.145      3.3960E-03
   4    9.997       8.886       7.765       6.646       5.537       4.439       3.348       2.251       1.139      3.3760E-03
   5    9.997       8.886       7.767       6.648       5.539       4.441       3.349       2.252       1.139      3.3783E-03
   6    9.997       8.896       7.785       6.674       5.568       4.471       3.376       2.272       1.150      3.4095E-03
   7    9.997       8.913       7.818       6.719       5.620       4.523       3.422       2.306       1.168      3.4646E-03
   8    9.997       8.933       7.856       6.771       5.681       4.585       3.476       2.347       1.190      3.5292E-03
   9    9.997       8.950       7.889       6.817       5.734       4.638       3.524       2.382       1.209      3.5855E-03
  10    9.997       8.960       7.909       6.844       5.765       4.669       3.551       2.403       1.220      3.6180E-03
1
              HEAD IN LAYER   4 AT END OF TIME STEP  94 IN STRESS PERIOD    5
  ---------------------------------------------------------------------------

            1           2           3           4           5           6           7           8           9          10
 ........................................................................................................................
   1    9.997       8.905       7.804       6.700       5.600       4.503       3.403       2.292       1.160      3.4668E-03
   2    9.997       8.900       7.793       6.685       5.582       4.485       3.388       2.280       1.154      3.4482E-03
   3    9.997       8.891       7.777       6.663       5.557       4.459       3.365       2.263       1.145      3.4210E-03
   4    9.997       8.886       7.766       6.647       5.538       4.440       3.348       2.251       1.138      3.4012E-03
   5    9.997       8.886       7.767       6.649       5.540       4.442       3.350       2.252       1.139      3.4036E-03
   6    9.997       8.896       7.786       6.674       5.569       4.471       3.376       2.272       1.149      3.4348E-03
   7    9.997       8.913       7.818       6.719       5.621       4.523       3.422       2.306       1.168      3.4898E-03
   8    9.997       8.933       7.856       6.771       5.681       4.584       3.476       2.346       1.189      3.5544E-03
   9    9.997       8.950       7.889       6.817       5.734       4.638       3.523       2.381       1.208      3.6106E-03
  10    9.997       8.960       7.908       6.843       5.764       4.668       3.550       2.401       1.219      3.6431E-03

 HEAD WILL BE SAVED ON UNIT   51 AT END OF TIME STEP   94, STRESS PERIOD    5

 DRAWDOWN WILL BE SAVED ON UNIT   52 AT END OF TIME STEP   94, STRESS PERIOD    5
1
  VOLUMETRIC BUDGET FOR ENTIRE MODEL AT END OF TIME STEP   94, STRESS PERIOD   5
  ------------------------------------------------------------------------------

     CUMULATIVE VOLUMES      L**3       RATES FOR THIS TIME STEP      L**3/T
     ------------------                 ------------------------

           IN:                                      IN:
           ---                                      ---
             STORAGE =      534214.3750               STORAGE =          17.8229
       CONSTANT HEAD =           0.0000         CONSTANT HEAD =           0.0000
               WELLS =           0.0000                 WELLS =           0.0000
     HEAD DEP BOUNDS =      142824.5156       HEAD DEP BOUNDS =         644.7484

            TOTAL IN =      677038.8750              TOTAL IN =         662.5713

          OUT:                                     OUT:
          ----                                     ----
             STORAGE =       16783.9336               STORAGE =          74.0025
       CONSTANT HEAD =           0.0000         CONSTANT HEAD =           0.0000
               WELLS =      100000.0000                 WELLS =           0.0000
     HEAD DEP BOUNDS =      560256.5000       HEAD DEP BOUNDS =         588.5593

           TOTAL OUT =      677040.4375             TOTAL OUT =         662.5618

            IN - OUT =          -1.5625              IN - OUT =       9.4604E-03

 PERCENT DISCREPANCY =          -0.00     PERCENT DISCREPANCY =           0.00






         TIME SUMMARY AT END OF TIME STEP   94 IN STRESS PERIOD    5
                    SECONDS     MINUTES      HOURS       DAYS        YEARS
                    -----------------------------------------------------------
   TIME STEP LENGTH  86400.      1440.0      24.000      1.0000     2.73785E-03
 STRESS PERIOD TIME 8.12160E+06 1.35360E+05  2256.0      94.000     0.25736    
         TOTAL TIME 3.41280E+07 5.68800E+05  9480.0      395.00      1.0815    
1
 
 SOLVING FOR HEAD 

 OUTPUT CONTROL FOR STRESS PERIOD    5   TIME STEP   95
    SAVE HEAD FOR ALL LAYERS
    SAVE DRAWDOWN FOR ALL LAYERS
    SAVE BUDGET
    PRINT HEAD FOR ALL LAYERS
    PRINT BUDGET
 UBDSV1 SAVING "         STORAGE" ON UNIT  53 AT TIME STEP 95, STRESS PERIOD   5
 UBDSV2 SAVING "   CONSTANT HEAD" ON UNIT  53 AT TIME STEP 95, STRESS PERIOD   5
 UBDSV1 SAVING "FLOW RIGHT FACE " ON UNIT  53 AT TIME STEP 95, STRESS PERIOD   5
 UBDSV1 SAVING "FLOW FRONT FACE " ON UNIT  53 AT TIME STEP 95, STRESS PERIOD   5
 UBDSV1 SAVING "FLOW LOWER FACE " ON UNIT  53 AT TIME STEP 95, STRESS PERIOD   5
1
              HEAD IN LAYER   1 AT END OF TIME STEP  95 IN STRESS PERIOD    5
  ---------------------------------------------------------------------------

            1           2           3           4           5           6           7           8           9          10
 ........................................................................................................................
   1    9.997       8.908       7.806       6.702       5.602       4.505       3.406       2.295       1.163      1.6014E-03
   2    9.997       8.902       7.795       6.687       5.584       4.487       3.390       2.283       1.157      1.5918E-03
   3    9.997       8.893       7.778       6.663       5.557       4.460       3.366       2.265       1.147      1.5780E-03
   4    9.997       8.887       7.766       6.646       5.537       4.439       3.348       2.252       1.140      1.5679E-03
   5    9.997       8.888       7.767       6.648       5.539       4.441       3.350       2.254       1.141      1.5689E-03
   6    9.997       8.897       7.786       6.674       5.568       4.471       3.376       2.273       1.152      1.5845E-03
   7    9.997       8.915       7.819       6.720       5.621       4.524       3.423       2.309       1.171      1.6119E-03
   8    9.997       8.935       7.858       6.773       5.683       4.587       3.479       2.350       1.193      1.6443E-03
   9    9.997       8.952       7.892       6.820       5.737       4.642       3.527       2.386       1.212      1.6724E-03
  10    9.997       8.963       7.911       6.847       5.768       4.673       3.555       2.406       1.223      1.6886E-03
1
              HEAD IN LAYER   2 AT END OF TIME STEP  95 IN STRESS PERIOD    5
  ---------------------------------------------------------------------------

            1           2           3           4           5           6           7           8           9          10
 ........................................................................................................................
   1    9.997       8.907       7.805       6.702       5.601       4.504       3.405       2.294       1.162      3.1916E-03
   2    9.997       8.901       7.794       6.686       5.583       4.486       3.389       2.282       1.156      3.1742E-03
   3    9.997       8.893       7.778       6.664       5.558       4.460       3.366       2.265       1.146      3.1488E-03
   4    9.997       8.887       7.767       6.648       5.539       4.441       3.349       2.252       1.140      3.1303E-03
   5    9.997       8.888       7.768       6.650       5.541       4.443       3.351       2.254       1.140      3.1324E-03
   6    9.997       8.897       7.787       6.675       5.570       4.472       3.377       2.273       1.151      3.1614E-03
   7    9.997       8.914       7.819       6.720       5.622       4.525       3.423       2.308       1.170      3.2126E-03
   8    9.997       8.934       7.857       6.772       5.682       4.586       3.477       2.348       1.191      3.2727E-03
   9    9.997       8.951       7.890       6.818       5.735       4.639       3.524       2.383       1.210      3.3250E-03
  10    9.997       8.961       7.909       6.844       5.766       4.670       3.552       2.404       1.221      3.3551E-03
1
              HEAD IN LAYER   3 AT END OF TIME STEP  95 IN STRESS PERIOD    5
  ---------------------------------------------------------------------------

            1           2           3           4           5           6           7           8           9          10
 ........................................................................................................................
   1    9.997       8.906       7.805       6.701       5.601       4.503       3.404       2.292       1.161      3.4414E-03
   2    9.997       8.900       7.794       6.686       5.583       4.486       3.388       2.281       1.154      3.4232E-03
   3    9.997       8.892       7.778       6.665       5.558       4.460       3.366       2.264       1.145      3.3966E-03
   4    9.997       8.887       7.767       6.649       5.540       4.442       3.349       2.252       1.139      3.3774E-03
   5    9.997       8.888       7.769       6.651       5.542       4.444       3.351       2.254       1.140      3.3799E-03
   6    9.997       8.897       7.787       6.676       5.571       4.473       3.377       2.273       1.150      3.4107E-03
   7    9.997       8.914       7.819       6.720       5.622       4.525       3.423       2.307       1.169      3.4649E-03
   8    9.997       8.933       7.857       6.772       5.682       4.585       3.476       2.347       1.190      3.5284E-03
   9    9.997       8.950       7.889       6.817       5.734       4.638       3.522       2.381       1.209      3.5837E-03
  10    9.997       8.960       7.908       6.843       5.764       4.668       3.549       2.401       1.219      3.6156E-03
1
              HEAD IN LAYER   4 AT END OF TIME STEP  95 IN STRESS PERIOD    5
  ---------------------------------------------------------------------------

            1           2           3           4           5           6           7           8           9          10
 ........................................................................................................................
   1    9.997       8.905       7.804       6.701       5.600       4.503       3.403       2.292       1.160      3.4660E-03
   2    9.997       8.900       7.794       6.686       5.583       4.486       3.388       2.280       1.154      3.4479E-03
   3    9.997       8.892       7.778       6.665       5.558       4.461       3.366       2.264       1.145      3.4215E-03
   4    9.997       8.887       7.767       6.650       5.541       4.442       3.350       2.252       1.139      3.4025E-03
   5    9.997       8.888       7.769       6.652       5.543       4.445       3.352       2.254       1.140      3.4052E-03
   6    9.997       8.897       7.787       6.677       5.572       4.474       3.377       2.273       1.150      3.4360E-03
   7    9.997       8.914       7.819       6.720       5.622       4.525       3.423       2.307       1.168      3.4902E-03
   8    9.997       8.933       7.856       6.772       5.681       4.585       3.475       2.346       1.189      3.5536E-03
   9    9.997       8.950       7.889       6.816       5.733       4.637       3.521       2.380       1.208      3.6088E-03
  10    9.997       8.959       7.907       6.842       5.763       4.667       3.548       2.400       1.218      3.6407E-03

 HEAD WILL BE SAVED ON UNIT   51 AT END OF TIME STEP   95, STRESS PERIOD    5

 DRAWDOWN WILL BE SAVED ON UNIT   52 AT END OF TIME STEP   95, STRESS PERIOD    5
1
  VOLUMETRIC BUDGET FOR ENTIRE MODEL AT END OF TIME STEP   95, STRESS PERIOD   5
  ------------------------------------------------------------------------------

     CUMULATIVE VOLUMES      L**3       RATES FOR THIS TIME STEP      L**3/T
     ------------------                 ------------------------

           IN:                                      IN:
           ---                                      ---
             STORAGE =      534231.5625               STORAGE =          17.2160
       CONSTANT HEAD =           0.0000         CONSTANT HEAD =           0.0000
               WELLS =           0.0000                 WELLS =           0.0000
     HEAD DEP BOUNDS =      143468.9688       HEAD DEP BOUNDS =         644.4502

            TOTAL IN =      677700.5000              TOTAL IN =         661.6663

          OUT:                                     OUT:
          ----                                     ----
             STORAGE =       16857.0547               STORAGE =          73.1204
       CONSTANT HEAD =           0.0000         CONSTANT HEAD =           0.0000
               WELLS =      100000.0000                 WELLS =           0.0000
     HEAD DEP BOUNDS =      560845.0625       HEAD DEP BOUNDS =         588.5399

           TOTAL OUT =      677702.1250             TOTAL OUT =         661.6603

            IN - OUT =          -1.6250              IN - OUT =       5.9814E-03

 PERCENT DISCREPANCY =          -0.00     PERCENT DISCREPANCY =           0.00






         TIME SUMMARY AT END OF TIME STEP   95 IN STRESS PERIOD    5
                    SECONDS     MINUTES      HOURS       DAYS        YEARS
                    -----------------------------------------------------------
   TIME STEP LENGTH  86400.      1440.0      24.000      1.0000     2.73785E-03
 STRESS PERIOD TIME 8.20800E+06 1.36800E+05  2280.0      95.000     0.26010    
         TOTAL TIME 3.42144E+07 5.70240E+05  9504.0      396.00      1.0842    
1
 
 SOLVING FOR HEAD 

 OUTPUT CONTROL FOR STRESS PERIOD    5   TIME STEP   96
    SAVE HEAD FOR ALL LAYERS
    SAVE DRAWDOWN FOR ALL LAYERS
    SAVE BUDGET
    PRINT HEAD FOR ALL LAYERS
    PRINT BUDGET
 UBDSV1 SAVING "         STORAGE" ON UNIT  53 AT TIME STEP 96, STRESS PERIOD   5
 UBDSV2 SAVING "   CONSTANT HEAD" ON UNIT  53 AT TIME STEP 96, STRESS PERIOD   5
 UBDSV1 SAVING "FLOW RIGHT FACE " ON UNIT  53 AT TIME STEP 96, STRESS PERIOD   5
 UBDSV1 SAVING "FLOW FRONT FACE " ON UNIT  53 AT TIME STEP 96, STRESS PERIOD   5
 UBDSV1 SAVING "FLOW LOWER FACE " ON UNIT  53 AT TIME STEP 96, STRESS PERIOD   5
1
              HEAD IN LAYER   1 AT END OF TIME STEP  96 IN STRESS PERIOD    5
  ---------------------------------------------------------------------------

            1           2           3           4           5           6           7           8           9          10
 ........................................................................................................................
   1    9.997       8.908       7.806       6.703       5.602       4.505       3.406       2.295       1.163      1.6009E-03
   2    9.997       8.902       7.795       6.688       5.585       4.487       3.390       2.283       1.157      1.5917E-03
   3    9.997       8.894       7.779       6.665       5.559       4.461       3.367       2.266       1.148      1.5784E-03
   4    9.997       8.888       7.768       6.649       5.540       4.442       3.350       2.253       1.141      1.5686E-03
   5    9.997       8.889       7.769       6.651       5.542       4.444       3.352       2.255       1.142      1.5697E-03
   6    9.997       8.898       7.788       6.676       5.571       4.473       3.378       2.274       1.152      1.5850E-03
   7    9.997       8.915       7.820       6.721       5.623       4.526       3.424       2.309       1.171      1.6120E-03
   8    9.997       8.935       7.858       6.774       5.684       4.587       3.479       2.349       1.193      1.6438E-03
   9    9.997       8.952       7.892       6.819       5.737       4.641       3.526       2.385       1.212      1.6715E-03
  10    9.997       8.962       7.911       6.846       5.767       4.671       3.553       2.405       1.223      1.6874E-03
1
              HEAD IN LAYER   2 AT END OF TIME STEP  96 IN STRESS PERIOD    5
  ---------------------------------------------------------------------------

            1           2           3           4           5           6           7           8           9          10
 ........................................................................................................................
   1    9.997       8.907       7.806       6.702       5.602       4.504       3.405       2.293       1.162      3.1908E-03
   2    9.997       8.901       7.795       6.687       5.585       4.487       3.389       2.282       1.156      3.1739E-03
   3    9.997       8.893       7.780       6.666       5.560       4.462       3.367       2.265       1.147      3.1493E-03
   4    9.997       8.888       7.769       6.651       5.541       4.443       3.351       2.253       1.140      3.1315E-03
   5    9.997       8.889       7.770       6.653       5.544       4.445       3.353       2.255       1.141      3.1339E-03
   6    9.997       8.898       7.788       6.678       5.573       4.475       3.379       2.274       1.151      3.1625E-03
   7    9.997       8.915       7.820       6.722       5.623       4.526       3.424       2.308       1.170      3.2129E-03
   8    9.997       8.934       7.858       6.773       5.683       4.586       3.477       2.348       1.191      3.2719E-03
   9    9.997       8.951       7.890       6.818       5.735       4.638       3.523       2.382       1.210      3.3233E-03
  10    9.997       8.961       7.909       6.843       5.764       4.669       3.550       2.402       1.220      3.3529E-03
1
              HEAD IN LAYER   3 AT END OF TIME STEP  96 IN STRESS PERIOD    5
  ---------------------------------------------------------------------------

            1           2           3           4           5           6           7           8           9          10
 ........................................................................................................................
   1    9.997       8.906       7.805       6.702       5.601       4.503       3.404       2.292       1.160      3.4406E-03
   2    9.997       8.901       7.795       6.687       5.584       4.487       3.389       2.281       1.154      3.4229E-03
   3    9.997       8.893       7.780       6.666       5.560       4.462       3.367       2.265       1.146      3.3972E-03
   4    9.997       8.888       7.769       6.652       5.543       4.444       3.351       2.253       1.139      3.3787E-03
   5    9.997       8.889       7.771       6.654       5.545       4.447       3.353       2.255       1.140      3.3815E-03
   6    9.997       8.898       7.789       6.679       5.574       4.476       3.379       2.274       1.151      3.4119E-03
   7    9.997       8.914       7.820       6.722       5.624       4.526       3.424       2.307       1.169      3.4652E-03
   8    9.997       8.933       7.857       6.772       5.682       4.585       3.476       2.346       1.190      3.5276E-03
   9    9.997       8.950       7.889       6.816       5.733       4.637       3.521       2.380       1.208      3.5820E-03
  10    9.997       8.960       7.907       6.842       5.762       4.666       3.548       2.400       1.219      3.6133E-03
1
              HEAD IN LAYER   4 AT END OF TIME STEP  96 IN STRESS PERIOD    5
  ---------------------------------------------------------------------------

            1           2           3           4           5           6           7           8           9          10
 ........................................................................................................................
   1    9.997       8.906       7.805       6.701       5.601       4.503       3.403       2.291       1.160      3.4652E-03
   2    9.997       8.901       7.795       6.687       5.584       4.486       3.388       2.280       1.154      3.4477E-03
   3    9.997       8.893       7.780       6.667       5.560       4.462       3.367       2.265       1.145      3.4221E-03
   4    9.997       8.888       7.769       6.652       5.543       4.445       3.351       2.253       1.139      3.4039E-03
   5    9.997       8.889       7.771       6.655       5.546       4.447       3.354       2.255       1.140      3.4068E-03
   6    9.997       8.898       7.789       6.679       5.574       4.476       3.379       2.274       1.150      3.4373E-03
   7    9.997       8.914       7.820       6.722       5.624       4.526       3.423       2.307       1.168      3.4905E-03
   8    9.997       8.933       7.857       6.772       5.682       4.585       3.475       2.346       1.189      3.5528E-03
   9    9.997       8.950       7.888       6.816       5.732       4.636       3.520       2.379       1.207      3.6071E-03
  10    9.997       8.959       7.907       6.841       5.761       4.665       3.546       2.399       1.218      3.6384E-03

 HEAD WILL BE SAVED ON UNIT   51 AT END OF TIME STEP   96, STRESS PERIOD    5

 DRAWDOWN WILL BE SAVED ON UNIT   52 AT END OF TIME STEP   96, STRESS PERIOD    5
1
  VOLUMETRIC BUDGET FOR ENTIRE MODEL AT END OF TIME STEP   96, STRESS PERIOD   5
  ------------------------------------------------------------------------------

     CUMULATIVE VOLUMES      L**3       RATES FOR THIS TIME STEP      L**3/T
     ------------------                 ------------------------

           IN:                                      IN:
           ---                                      ---
             STORAGE =      534248.1875               STORAGE =          16.6220
       CONSTANT HEAD =           0.0000         CONSTANT HEAD =           0.0000
               WELLS =           0.0000                 WELLS =           0.0000
     HEAD DEP BOUNDS =      144113.1406       HEAD DEP BOUNDS =         644.1718

            TOTAL IN =      678361.3125              TOTAL IN =         660.7938

          OUT:                                     OUT:
          ----                                     ----
             STORAGE =       16929.3125               STORAGE =          72.2570
       CONSTANT HEAD =           0.0000         CONSTANT HEAD =           0.0000
               WELLS =      100000.0000                 WELLS =           0.0000
     HEAD DEP BOUNDS =      561433.5625       HEAD DEP BOUNDS =         588.5255

           TOTAL OUT =      678362.8750             TOTAL OUT =         660.7824

            IN - OUT =          -1.5625              IN - OUT =       1.1414E-02

 PERCENT DISCREPANCY =          -0.00     PERCENT DISCREPANCY =           0.00






         TIME SUMMARY AT END OF TIME STEP   96 IN STRESS PERIOD    5
                    SECONDS     MINUTES      HOURS       DAYS        YEARS
                    -----------------------------------------------------------
   TIME STEP LENGTH  86400.      1440.0      24.000      1.0000     2.73785E-03
 STRESS PERIOD TIME 8.29440E+06 1.38240E+05  2304.0      96.000     0.26283    
         TOTAL TIME 3.43008E+07 5.71680E+05  9528.0      397.00      1.0869    
1
 
 SOLVING FOR HEAD 

 OUTPUT CONTROL FOR STRESS PERIOD    5   TIME STEP   97
    SAVE HEAD FOR ALL LAYERS
    SAVE DRAWDOWN FOR ALL LAYERS
    SAVE BUDGET
    PRINT HEAD FOR ALL LAYERS
    PRINT BUDGET
 UBDSV1 SAVING "         STORAGE" ON UNIT  53 AT TIME STEP 97, STRESS PERIOD   5
 UBDSV2 SAVING "   CONSTANT HEAD" ON UNIT  53 AT TIME STEP 97, STRESS PERIOD   5
 UBDSV1 SAVING "FLOW RIGHT FACE " ON UNIT  53 AT TIME STEP 97, STRESS PERIOD   5
 UBDSV1 SAVING "FLOW FRONT FACE " ON UNIT  53 AT TIME STEP 97, STRESS PERIOD   5
 UBDSV1 SAVING "FLOW LOWER FACE " ON UNIT  53 AT TIME STEP 97, STRESS PERIOD   5
1
              HEAD IN LAYER   1 AT END OF TIME STEP  97 IN STRESS PERIOD    5
  ---------------------------------------------------------------------------

            1           2           3           4           5           6           7           8           9          10
 ........................................................................................................................
   1    9.997       8.908       7.807       6.703       5.603       4.506       3.406       2.295       1.163      1.6006E-03
   2    9.997       8.903       7.796       6.689       5.586       4.488       3.391       2.283       1.157      1.5916E-03
   3    9.997       8.895       7.781       6.667       5.561       4.463       3.368       2.267       1.148      1.5786E-03
   4    9.997       8.889       7.770       6.652       5.543       4.444       3.352       2.255       1.141      1.5693E-03
   5    9.997       8.890       7.771       6.654       5.545       4.447       3.354       2.256       1.142      1.5705E-03
   6    9.997       8.899       7.790       6.679       5.574       4.476       3.380       2.275       1.153      1.5857E-03
   7    9.997       8.916       7.821       6.723       5.625       4.527       3.425       2.309       1.171      1.6121E-03
   8    9.997       8.935       7.859       6.774       5.684       4.587       3.478       2.349       1.192      1.6435E-03
   9    9.997       8.952       7.891       6.819       5.736       4.640       3.525       2.384       1.211      1.6706E-03
  10    9.997       8.962       7.910       6.845       5.766       4.670       3.551       2.404       1.222      1.6863E-03
1
              HEAD IN LAYER   2 AT END OF TIME STEP  97 IN STRESS PERIOD    5
  ---------------------------------------------------------------------------

            1           2           3           4           5           6           7           8           9          10
 ........................................................................................................................
   1    9.997       8.907       7.806       6.703       5.602       4.505       3.405       2.293       1.161      3.1901E-03
   2    9.997       8.902       7.796       6.688       5.586       4.488       3.390       2.282       1.155      3.1737E-03
   3    9.997       8.894       7.781       6.668       5.561       4.463       3.368       2.266       1.147      3.1499E-03
   4    9.997       8.889       7.771       6.653       5.544       4.446       3.352       2.254       1.141      3.1328E-03
   5    9.997       8.890       7.772       6.655       5.547       4.448       3.355       2.256       1.142      3.1354E-03
   6    9.997       8.899       7.790       6.680       5.575       4.477       3.380       2.275       1.152      3.1637E-03
   7    9.997       8.915       7.821       6.723       5.625       4.527       3.425       2.308       1.170      3.2132E-03
   8    9.997       8.934       7.858       6.773       5.683       4.586       3.477       2.347       1.191      3.2712E-03
   9    9.997       8.951       7.890       6.817       5.734       4.638       3.522       2.381       1.209      3.3217E-03
  10    9.997       8.960       7.908       6.842       5.763       4.667       3.549       2.401       1.220      3.3508E-03
1
              HEAD IN LAYER   3 AT END OF TIME STEP  97 IN STRESS PERIOD    5
  ---------------------------------------------------------------------------

            1           2           3           4           5           6           7           8           9          10
 ........................................................................................................................
   1    9.997       8.906       7.806       6.702       5.602       4.504       3.403       2.292       1.160      3.4399E-03
   2    9.997       8.901       7.796       6.688       5.585       4.487       3.389       2.281       1.154      3.4227E-03
   3    9.997       8.894       7.781       6.668       5.562       4.464       3.368       2.265       1.146      3.3978E-03
   4    9.997       8.889       7.771       6.654       5.545       4.447       3.353       2.254       1.140      3.3800E-03
   5    9.997       8.890       7.773       6.657       5.548       4.449       3.355       2.256       1.141      3.3831E-03
   6    9.997       8.899       7.791       6.681       5.576       4.478       3.381       2.275       1.151      3.4132E-03
   7    9.997       8.915       7.821       6.723       5.625       4.527       3.424       2.308       1.169      3.4656E-03
   8    9.997       8.934       7.857       6.773       5.683       4.585       3.476       2.346       1.189      3.5269E-03
   9    9.997       8.950       7.889       6.816       5.732       4.636       3.520       2.379       1.207      3.5803E-03
  10    9.997       8.959       7.907       6.841       5.761       4.665       3.546       2.399       1.218      3.6111E-03
1
              HEAD IN LAYER   4 AT END OF TIME STEP  97 IN STRESS PERIOD    5
  ---------------------------------------------------------------------------

            1           2           3           4           5           6           7           8           9          10
 ........................................................................................................................
   1    9.997       8.906       7.805       6.702       5.601       4.503       3.403       2.291       1.159      3.4645E-03
   2    9.997       8.901       7.795       6.688       5.585       4.487       3.389       2.280       1.154      3.4475E-03
   3    9.997       8.894       7.781       6.669       5.562       4.464       3.368       2.265       1.145      3.4228E-03
   4    9.997       8.889       7.771       6.655       5.546       4.447       3.353       2.254       1.140      3.4052E-03
   5    9.997       8.890       7.773       6.657       5.549       4.450       3.356       2.256       1.141      3.4084E-03
   6    9.997       8.899       7.791       6.681       5.577       4.478       3.381       2.275       1.151      3.4385E-03
   7    9.997       8.915       7.821       6.723       5.625       4.527       3.424       2.307       1.168      3.4909E-03
   8    9.997       8.933       7.857       6.773       5.682       4.585       3.475       2.345       1.189      3.5521E-03
   9    9.997       8.949       7.888       6.815       5.732       4.635       3.519       2.378       1.207      3.6054E-03
  10    9.997       8.959       7.906       6.840       5.760       4.664       3.545       2.397       1.217      3.6362E-03

 HEAD WILL BE SAVED ON UNIT   51 AT END OF TIME STEP   97, STRESS PERIOD    5

 DRAWDOWN WILL BE SAVED ON UNIT   52 AT END OF TIME STEP   97, STRESS PERIOD    5
1
  VOLUMETRIC BUDGET FOR ENTIRE MODEL AT END OF TIME STEP   97, STRESS PERIOD   5
  ------------------------------------------------------------------------------

     CUMULATIVE VOLUMES      L**3       RATES FOR THIS TIME STEP      L**3/T
     ------------------                 ------------------------

           IN:                                      IN:
           ---                                      ---
             STORAGE =      534264.2500               STORAGE =          16.0603
       CONSTANT HEAD =           0.0000         CONSTANT HEAD =           0.0000
               WELLS =           0.0000                 WELLS =           0.0000
     HEAD DEP BOUNDS =      144757.0156       HEAD DEP BOUNDS =         643.8757

            TOTAL IN =      679021.2500              TOTAL IN =         659.9359

          OUT:                                     OUT:
          ----                                     ----
             STORAGE =       17000.7305               STORAGE =          71.4179
       CONSTANT HEAD =           0.0000         CONSTANT HEAD =           0.0000
               WELLS =      100000.0000                 WELLS =           0.0000
     HEAD DEP BOUNDS =      562022.0625       HEAD DEP BOUNDS =         588.5168

           TOTAL OUT =      679022.8125             TOTAL OUT =         659.9346

            IN - OUT =          -1.5625              IN - OUT =       1.2817E-03

 PERCENT DISCREPANCY =          -0.00     PERCENT DISCREPANCY =           0.00






         TIME SUMMARY AT END OF TIME STEP   97 IN STRESS PERIOD    5
                    SECONDS     MINUTES      HOURS       DAYS        YEARS
                    -----------------------------------------------------------
   TIME STEP LENGTH  86400.      1440.0      24.000      1.0000     2.73785E-03
 STRESS PERIOD TIME 8.38080E+06 1.39680E+05  2328.0      97.000     0.26557    
         TOTAL TIME 3.43872E+07 5.73120E+05  9552.0      398.00      1.0897    
1
 
 SOLVING FOR HEAD 

 OUTPUT CONTROL FOR STRESS PERIOD    5   TIME STEP   98
    SAVE HEAD FOR ALL LAYERS
    SAVE DRAWDOWN FOR ALL LAYERS
    SAVE BUDGET
    PRINT HEAD FOR ALL LAYERS
    PRINT BUDGET
 UBDSV1 SAVING "         STORAGE" ON UNIT  53 AT TIME STEP 98, STRESS PERIOD   5
 UBDSV2 SAVING "   CONSTANT HEAD" ON UNIT  53 AT TIME STEP 98, STRESS PERIOD   5
 UBDSV1 SAVING "FLOW RIGHT FACE " ON UNIT  53 AT TIME STEP 98, STRESS PERIOD   5
 UBDSV1 SAVING "FLOW FRONT FACE " ON UNIT  53 AT TIME STEP 98, STRESS PERIOD   5
 UBDSV1 SAVING "FLOW LOWER FACE " ON UNIT  53 AT TIME STEP 98, STRESS PERIOD   5
1
              HEAD IN LAYER   1 AT END OF TIME STEP  98 IN STRESS PERIOD    5
  ---------------------------------------------------------------------------

            1           2           3           4           5           6           7           8           9          10
 ........................................................................................................................
   1    9.997       8.908       7.807       6.704       5.603       4.506       3.406       2.294       1.163      1.6001E-03
   2    9.997       8.903       7.797       6.690       5.587       4.489       3.391       2.283       1.157      1.5915E-03
   3    9.997       8.895       7.782       6.669       5.563       4.464       3.369       2.267       1.148      1.5789E-03
   4    9.997       8.890       7.772       6.654       5.545       4.447       3.354       2.256       1.142      1.5698E-03
   5    9.997       8.891       7.774       6.657       5.548       4.449       3.356       2.257       1.143      1.5714E-03
   6    9.997       8.900       7.791       6.681       5.576       4.478       3.381       2.276       1.153      1.5863E-03
   7    9.997       8.917       7.823       6.724       5.626       4.528       3.426       2.310       1.171      1.6123E-03
   8    9.997       8.936       7.859       6.775       5.684       4.587       3.478       2.349       1.192      1.6430E-03
   9    9.997       8.952       7.891       6.818       5.735       4.639       3.524       2.383       1.210      1.6698E-03
  10    9.997       8.962       7.909       6.844       5.764       4.668       3.550       2.402       1.221      1.6852E-03
1
              HEAD IN LAYER   2 AT END OF TIME STEP  98 IN STRESS PERIOD    5
  ---------------------------------------------------------------------------

            1           2           3           4           5           6           7           8           9          10
 ........................................................................................................................
   1    9.997       8.907       7.807       6.703       5.603       4.505       3.404       2.293       1.161      3.1895E-03
   2    9.997       8.902       7.797       6.690       5.587       4.489       3.390       2.282       1.155      3.1735E-03
   3    9.997       8.895       7.782       6.670       5.563       4.465       3.369       2.267       1.147      3.1504E-03
   4    9.997       8.890       7.772       6.656       5.547       4.448       3.354       2.255       1.141      3.1340E-03
   5    9.997       8.891       7.774       6.658       5.550       4.451       3.357       2.257       1.142      3.1369E-03
   6    9.997       8.900       7.792       6.682       5.578       4.479       3.382       2.276       1.152      3.1649E-03
   7    9.997       8.916       7.823       6.725       5.626       4.529       3.426       2.309       1.170      3.2135E-03
   8    9.997       8.935       7.858       6.774       5.684       4.586       3.477       2.347       1.191      3.2705E-03
   9    9.997       8.951       7.889       6.817       5.733       4.637       3.521       2.380       1.209      3.3201E-03
  10    9.997       8.960       7.907       6.842       5.762       4.666       3.547       2.400       1.219      3.3487E-03
1
              HEAD IN LAYER   3 AT END OF TIME STEP  98 IN STRESS PERIOD    5
  ---------------------------------------------------------------------------

            1           2           3           4           5           6           7           8           9          10
 ........................................................................................................................
   1    9.997       8.907       7.806       6.703       5.602       4.504       3.403       2.292       1.160      3.4392E-03
   2    9.997       8.902       7.796       6.689       5.586       4.488       3.389       2.281       1.154      3.4225E-03
   3    9.997       8.895       7.783       6.670       5.564       4.465       3.369       2.266       1.146      3.3984E-03
   4    9.997       8.890       7.773       6.656       5.548       4.449       3.355       2.255       1.140      3.3814E-03
   5    9.997       8.891       7.775       6.659       5.551       4.452       3.357       2.257       1.141      3.3847E-03
   6    9.997       8.900       7.792       6.683       5.579       4.480       3.382       2.276       1.151      3.4144E-03
   7    9.997       8.916       7.823       6.725       5.627       4.529       3.425       2.308       1.169      3.4659E-03
   8    9.997       8.934       7.858       6.773       5.683       4.585       3.476       2.346       1.189      3.5262E-03
   9    9.997       8.950       7.888       6.815       5.732       4.635       3.519       2.378       1.207      3.5786E-03
  10    9.997       8.959       7.906       6.840       5.760       4.663       3.545       2.397       1.217      3.6089E-03
1
              HEAD IN LAYER   4 AT END OF TIME STEP  98 IN STRESS PERIOD    5
  ---------------------------------------------------------------------------

            1           2           3           4           5           6           7           8           9          10
 ........................................................................................................................
   1    9.997       8.906       7.806       6.703       5.602       4.504       3.403       2.291       1.159      3.4639E-03
   2    9.997       8.901       7.796       6.689       5.586       4.488       3.389       2.281       1.154      3.4473E-03
   3    9.997       8.894       7.783       6.670       5.564       4.465       3.369       2.266       1.146      3.4234E-03
   4    9.997       8.890       7.773       6.657       5.549       4.449       3.355       2.255       1.140      3.4065E-03
   5    9.997       8.891       7.775       6.660       5.552       4.453       3.358       2.257       1.141      3.4100E-03
   6    9.997       8.900       7.793       6.684       5.579       4.480       3.382       2.276       1.151      3.4397E-03
   7    9.997       8.915       7.823       6.725       5.627       4.529       3.425       2.308       1.168      3.4912E-03
   8    9.997       8.934       7.857       6.773       5.683       4.585       3.475       2.345       1.188      3.5514E-03
   9    9.997       8.949       7.888       6.815       5.731       4.634       3.518       2.378       1.206      3.6038E-03
  10    9.997       8.958       7.905       6.839       5.759       4.662       3.543       2.396       1.216      3.6340E-03

 HEAD WILL BE SAVED ON UNIT   51 AT END OF TIME STEP   98, STRESS PERIOD    5

 DRAWDOWN WILL BE SAVED ON UNIT   52 AT END OF TIME STEP   98, STRESS PERIOD    5
1
  VOLUMETRIC BUDGET FOR ENTIRE MODEL AT END OF TIME STEP   98, STRESS PERIOD   5
  ------------------------------------------------------------------------------

     CUMULATIVE VOLUMES      L**3       RATES FOR THIS TIME STEP      L**3/T
     ------------------                 ------------------------

           IN:                                      IN:
           ---                                      ---
             STORAGE =      534279.7500               STORAGE =          15.5170
       CONSTANT HEAD =           0.0000         CONSTANT HEAD =           0.0000
               WELLS =           0.0000                 WELLS =           0.0000
     HEAD DEP BOUNDS =      145400.6094       HEAD DEP BOUNDS =         643.5957

            TOTAL IN =      679680.3750              TOTAL IN =         659.1127

          OUT:                                     OUT:
          ----                                     ----
             STORAGE =       17071.3281               STORAGE =          70.5972
       CONSTANT HEAD =           0.0000         CONSTANT HEAD =           0.0000
               WELLS =      100000.0000                 WELLS =           0.0000
     HEAD DEP BOUNDS =      562610.5625       HEAD DEP BOUNDS =         588.5096

           TOTAL OUT =      679681.8750             TOTAL OUT =         659.1068

            IN - OUT =          -1.5000              IN - OUT =       5.9814E-03

 PERCENT DISCREPANCY =          -0.00     PERCENT DISCREPANCY =           0.00






         TIME SUMMARY AT END OF TIME STEP   98 IN STRESS PERIOD    5
                    SECONDS     MINUTES      HOURS       DAYS        YEARS
                    -----------------------------------------------------------
   TIME STEP LENGTH  86400.      1440.0      24.000      1.0000     2.73785E-03
 STRESS PERIOD TIME 8.46720E+06 1.41120E+05  2352.0      98.000     0.26831    
         TOTAL TIME 3.44736E+07 5.74560E+05  9576.0      399.00      1.0924    
1
 
 SOLVING FOR HEAD 

 OUTPUT CONTROL FOR STRESS PERIOD    5   TIME STEP   99
    SAVE HEAD FOR ALL LAYERS
    SAVE DRAWDOWN FOR ALL LAYERS
    SAVE BUDGET
    PRINT HEAD FOR ALL LAYERS
    PRINT BUDGET
 UBDSV1 SAVING "         STORAGE" ON UNIT  53 AT TIME STEP 99, STRESS PERIOD   5
 UBDSV2 SAVING "   CONSTANT HEAD" ON UNIT  53 AT TIME STEP 99, STRESS PERIOD   5
 UBDSV1 SAVING "FLOW RIGHT FACE " ON UNIT  53 AT TIME STEP 99, STRESS PERIOD   5
 UBDSV1 SAVING "FLOW FRONT FACE " ON UNIT  53 AT TIME STEP 99, STRESS PERIOD   5
 UBDSV1 SAVING "FLOW LOWER FACE " ON UNIT  53 AT TIME STEP 99, STRESS PERIOD   5
1
              HEAD IN LAYER   1 AT END OF TIME STEP  99 IN STRESS PERIOD    5
  ---------------------------------------------------------------------------

            1           2           3           4           5           6           7           8           9          10
 ........................................................................................................................
   1    9.997       8.909       7.808       6.705       5.604       4.506       3.406       2.294       1.162      1.5998E-03
   2    9.997       8.904       7.798       6.691       5.588       4.490       3.391       2.283       1.157      1.5914E-03
   3    9.997       8.896       7.784       6.671       5.565       4.466       3.370       2.268       1.148      1.5793E-03
   4    9.997       8.891       7.774       6.657       5.548       4.449       3.355       2.257       1.142      1.5705E-03
   5    9.997       8.892       7.776       6.659       5.551       4.452       3.358       2.259       1.143      1.5722E-03
   6    9.997       8.901       7.793       6.684       5.579       4.480       3.383       2.277       1.153      1.5869E-03
   7    9.997       8.917       7.824       6.726       5.628       4.530       3.427       2.310       1.171      1.6126E-03
   8    9.997       8.936       7.860       6.775       5.685       4.588       3.478       2.348       1.192      1.6427E-03
   9    9.997       8.952       7.891       6.818       5.735       4.638       3.523       2.382       1.210      1.6689E-03
  10    9.997       8.961       7.909       6.843       5.763       4.667       3.548       2.401       1.220      1.6841E-03
1
              HEAD IN LAYER   2 AT END OF TIME STEP  99 IN STRESS PERIOD    5
  ---------------------------------------------------------------------------

            1           2           3           4           5           6           7           8           9          10
 ........................................................................................................................
   1    9.997       8.908       7.807       6.704       5.603       4.505       3.404       2.293       1.161      3.1888E-03
   2    9.997       8.903       7.798       6.691       5.588       4.489       3.390       2.282       1.155      3.1734E-03
   3    9.997       8.896       7.784       6.671       5.565       4.467       3.370       2.267       1.147      3.1510E-03
   4    9.997       8.891       7.774       6.658       5.549       4.450       3.356       2.256       1.142      3.1352E-03
   5    9.997       8.892       7.776       6.661       5.553       4.453       3.359       2.259       1.143      3.1384E-03
   6    9.997       8.901       7.794       6.685       5.580       4.481       3.383       2.277       1.153      3.1660E-03
   7    9.997       8.917       7.824       6.726       5.628       4.530       3.426       2.309       1.170      3.2139E-03
   8    9.997       8.935       7.859       6.774       5.684       4.587       3.477       2.347       1.190      3.2698E-03
   9    9.997       8.951       7.889       6.816       5.733       4.636       3.520       2.380       1.208      3.3186E-03
  10    9.997       8.960       7.907       6.841       5.761       4.664       3.546       2.398       1.218      3.3467E-03
1
              HEAD IN LAYER   3 AT END OF TIME STEP  99 IN STRESS PERIOD    5
  ---------------------------------------------------------------------------

            1           2           3           4           5           6           7           8           9          10
 ........................................................................................................................
   1    9.997       8.907       7.807       6.703       5.603       4.504       3.403       2.291       1.160      3.4386E-03
   2    9.997       8.902       7.797       6.690       5.587       4.489       3.390       2.281       1.154      3.4224E-03
   3    9.997       8.895       7.784       6.672       5.566       4.467       3.370       2.267       1.146      3.3991E-03
   4    9.997       8.891       7.775       6.659       5.551       4.451       3.356       2.256       1.141      3.3827E-03
   5    9.997       8.892       7.777       6.662       5.554       4.455       3.359       2.259       1.142      3.3863E-03
   6    9.997       8.901       7.794       6.686       5.581       4.482       3.384       2.277       1.152      3.4156E-03
   7    9.997       8.916       7.824       6.726       5.628       4.530       3.426       2.308       1.169      3.4663E-03
   8    9.997       8.934       7.858       6.774       5.683       4.586       3.476       2.345       1.189      3.5255E-03
   9    9.997       8.950       7.888       6.815       5.731       4.634       3.518       2.378       1.206      3.5770E-03
  10    9.997       8.959       7.906       6.839       5.759       4.662       3.543       2.396       1.216      3.6068E-03
1
              HEAD IN LAYER   4 AT END OF TIME STEP  99 IN STRESS PERIOD    5
  ---------------------------------------------------------------------------

            1           2           3           4           5           6           7           8           9          10
 ........................................................................................................................
   1    9.997       8.907       7.806       6.703       5.602       4.504       3.403       2.291       1.159      3.4633E-03
   2    9.997       8.902       7.797       6.690       5.587       4.489       3.389       2.281       1.154      3.4472E-03
   3    9.997       8.895       7.784       6.672       5.566       4.467       3.370       2.266       1.146      3.4241E-03
   4    9.997       8.890       7.775       6.659       5.551       4.452       3.357       2.256       1.140      3.4079E-03
   5    9.997       8.892       7.777       6.662       5.555       4.455       3.360       2.258       1.142      3.4116E-03
   6    9.997       8.901       7.794       6.686       5.582       4.483       3.384       2.277       1.152      3.4410E-03
   7    9.997       8.916       7.824       6.726       5.628       4.530       3.426       2.308       1.168      3.4916E-03
   8    9.997       8.934       7.858       6.773       5.683       4.585       3.475       2.345       1.188      3.5507E-03
   9    9.997       8.949       7.888       6.814       5.730       4.633       3.517       2.377       1.205      3.6022E-03
  10    9.997       8.958       7.905       6.838       5.758       4.661       3.542       2.395       1.215      3.6319E-03

 HEAD WILL BE SAVED ON UNIT   51 AT END OF TIME STEP   99, STRESS PERIOD    5

 DRAWDOWN WILL BE SAVED ON UNIT   52 AT END OF TIME STEP   99, STRESS PERIOD    5
1
  VOLUMETRIC BUDGET FOR ENTIRE MODEL AT END OF TIME STEP   99, STRESS PERIOD   5
  ------------------------------------------------------------------------------

     CUMULATIVE VOLUMES      L**3       RATES FOR THIS TIME STEP      L**3/T
     ------------------                 ------------------------

           IN:                                      IN:
           ---                                      ---
             STORAGE =      534294.7500               STORAGE =          14.9866
       CONSTANT HEAD =           0.0000         CONSTANT HEAD =           0.0000
               WELLS =           0.0000                 WELLS =           0.0000
     HEAD DEP BOUNDS =      146043.9219       HEAD DEP BOUNDS =         643.3076

            TOTAL IN =      680338.6875              TOTAL IN =         658.2941

          OUT:                                     OUT:
          ----                                     ----
             STORAGE =       17141.1191               STORAGE =          69.7911
       CONSTANT HEAD =           0.0000         CONSTANT HEAD =           0.0000
               WELLS =      100000.0000                 WELLS =           0.0000
     HEAD DEP BOUNDS =      563199.0625       HEAD DEP BOUNDS =         588.5097

           TOTAL OUT =      680340.1875             TOTAL OUT =         658.3008

            IN - OUT =          -1.5000              IN - OUT =      -6.7139E-03

 PERCENT DISCREPANCY =          -0.00     PERCENT DISCREPANCY =          -0.00






         TIME SUMMARY AT END OF TIME STEP   99 IN STRESS PERIOD    5
                    SECONDS     MINUTES      HOURS       DAYS        YEARS
                    -----------------------------------------------------------
   TIME STEP LENGTH  86400.      1440.0      24.000      1.0000     2.73785E-03
 STRESS PERIOD TIME 8.55360E+06 1.42560E+05  2376.0      99.000     0.27105    
         TOTAL TIME 3.45600E+07 5.76000E+05  9600.0      400.00      1.0951    
1
 
 SOLVING FOR HEAD 

 OUTPUT CONTROL FOR STRESS PERIOD    5   TIME STEP  100
    SAVE HEAD FOR ALL LAYERS
    SAVE DRAWDOWN FOR ALL LAYERS
    SAVE BUDGET
    PRINT HEAD FOR ALL LAYERS
    PRINT BUDGET
 UBDSV1 SAVING "         STORAGE" ON UNIT  53 AT TIME STEP100, STRESS PERIOD   5
 UBDSV2 SAVING "   CONSTANT HEAD" ON UNIT  53 AT TIME STEP100, STRESS PERIOD   5
 UBDSV1 SAVING "FLOW RIGHT FACE " ON UNIT  53 AT TIME STEP100, STRESS PERIOD   5
 UBDSV1 SAVING "FLOW FRONT FACE " ON UNIT  53 AT TIME STEP100, STRESS PERIOD   5
 UBDSV1 SAVING "FLOW LOWER FACE " ON UNIT  53 AT TIME STEP100, STRESS PERIOD   5
1
              HEAD IN LAYER   1 AT END OF TIME STEP 100 IN STRESS PERIOD    5
  ---------------------------------------------------------------------------

            1           2           3           4           5           6           7           8           9          10
 ........................................................................................................................
   1    9.997       8.909       7.808       6.705       5.604       4.506       3.406       2.294       1.162      1.5996E-03
   2    9.997       8.904       7.799       6.692       5.589       4.491       3.392       2.283       1.157      1.5914E-03
   3    9.997       8.897       7.785       6.673       5.566       4.468       3.371       2.268       1.148      1.5795E-03
   4    9.997       8.892       7.775       6.659       5.551       4.452       3.357       2.258       1.143      1.5712E-03
   5    9.997       8.893       7.778       6.662       5.554       4.455       3.360       2.260       1.144      1.5730E-03
   6    9.997       8.902       7.795       6.686       5.581       4.483       3.385       2.278       1.154      1.5875E-03
   7    9.997       8.918       7.825       6.727       5.629       4.531       3.428       2.310       1.171      1.6127E-03
   8    9.997       8.936       7.860       6.776       5.685       4.588       3.478       2.348       1.192      1.6424E-03
   9    9.997       8.952       7.891       6.818       5.734       4.637       3.522       2.381       1.209      1.6681E-03
  10    9.997       8.961       7.908       6.842       5.762       4.665       3.547       2.400       1.220      1.6830E-03
1
              HEAD IN LAYER   2 AT END OF TIME STEP 100 IN STRESS PERIOD    5
  ---------------------------------------------------------------------------

            1           2           3           4           5           6           7           8           9          10
 ........................................................................................................................
   1    9.997       8.908       7.808       6.704       5.604       4.505       3.404       2.292       1.161      3.1883E-03
   2    9.997       8.903       7.798       6.692       5.589       4.490       3.391       2.282       1.155      3.1733E-03
   3    9.997       8.896       7.785       6.673       5.567       4.468       3.371       2.268       1.147      3.1516E-03
   4    9.997       8.892       7.776       6.660       5.552       4.453       3.358       2.257       1.142      3.1365E-03
   5    9.997       8.893       7.778       6.663       5.555       4.456       3.361       2.260       1.143      3.1399E-03
   6    9.997       8.902       7.795       6.687       5.583       4.484       3.385       2.278       1.153      3.1671E-03
   7    9.997       8.917       7.825       6.728       5.630       4.531       3.427       2.310       1.170      3.2142E-03
   8    9.997       8.935       7.859       6.775       5.684       4.587       3.477       2.347       1.190      3.2692E-03
   9    9.997       8.950       7.889       6.816       5.732       4.635       3.519       2.379       1.207      3.3171E-03
  10    9.997       8.959       7.906       6.840       5.760       4.663       3.544       2.397       1.217      3.3447E-03
1
              HEAD IN LAYER   3 AT END OF TIME STEP 100 IN STRESS PERIOD    5
  ---------------------------------------------------------------------------

            1           2           3           4           5           6           7           8           9          10
 ........................................................................................................................
   1    9.997       8.907       7.807       6.704       5.603       4.504       3.403       2.291       1.159      3.4380E-03
   2    9.997       8.903       7.798       6.692       5.589       4.490       3.390       2.281       1.154      3.4223E-03
   3    9.997       8.896       7.785       6.674       5.568       4.468       3.371       2.267       1.147      3.3997E-03
   4    9.997       8.891       7.776       6.661       5.553       4.454       3.358       2.257       1.141      3.3840E-03
   5    9.997       8.893       7.779       6.664       5.557       4.457       3.361       2.260       1.143      3.3879E-03
   6    9.997       8.902       7.796       6.688       5.584       4.484       3.385       2.278       1.152      3.4169E-03
   7    9.997       8.917       7.825       6.728       5.630       4.531       3.427       2.309       1.169      3.4667E-03
   8    9.997       8.934       7.859       6.774       5.684       4.586       3.475       2.345       1.189      3.5248E-03
   9    9.997       8.950       7.888       6.815       5.731       4.633       3.518       2.377       1.206      3.5754E-03
  10    9.997       8.958       7.905       6.838       5.758       4.661       3.542       2.395       1.216      3.6047E-03
1
              HEAD IN LAYER   4 AT END OF TIME STEP 100 IN STRESS PERIOD    5
  ---------------------------------------------------------------------------

            1           2           3           4           5           6           7           8           9          10
 ........................................................................................................................
   1    9.997       8.907       7.807       6.704       5.603       4.504       3.403       2.290       1.159      3.4627E-03
   2    9.997       8.902       7.798       6.691       5.588       4.490       3.390       2.281       1.154      3.4471E-03
   3    9.997       8.896       7.785       6.674       5.568       4.469       3.371       2.267       1.146      3.4247E-03
   4    9.997       8.891       7.777       6.662       5.554       4.454       3.358       2.257       1.141      3.4092E-03
   5    9.997       8.893       7.779       6.665       5.557       4.458       3.362       2.260       1.142      3.4132E-03
   6    9.997       8.902       7.796       6.688       5.584       4.485       3.386       2.278       1.152      3.4422E-03
   7    9.997       8.917       7.825       6.728       5.630       4.531       3.427       2.309       1.169      3.4920E-03
   8    9.997       8.934       7.858       6.774       5.683       4.585       3.475       2.344       1.188      3.5501E-03
   9    9.997       8.949       7.887       6.814       5.730       4.632       3.517       2.376       1.205      3.6006E-03
  10    9.997       8.958       7.904       6.837       5.757       4.660       3.541       2.394       1.215      3.6298E-03

 HEAD WILL BE SAVED ON UNIT   51 AT END OF TIME STEP  100, STRESS PERIOD    5

 DRAWDOWN WILL BE SAVED ON UNIT   52 AT END OF TIME STEP  100, STRESS PERIOD    5
1
  VOLUMETRIC BUDGET FOR ENTIRE MODEL AT END OF TIME STEP  100, STRESS PERIOD   5
  ------------------------------------------------------------------------------

     CUMULATIVE VOLUMES      L**3       RATES FOR THIS TIME STEP      L**3/T
     ------------------                 ------------------------

           IN:                                      IN:
           ---                                      ---
             STORAGE =      534309.2500               STORAGE =          14.4715
       CONSTANT HEAD =           0.0000         CONSTANT HEAD =           0.0000
               WELLS =           0.0000                 WELLS =           0.0000
     HEAD DEP BOUNDS =      146686.9531       HEAD DEP BOUNDS =         643.0327

            TOTAL IN =      680996.1875              TOTAL IN =         657.5042

          OUT:                                     OUT:
          ----                                     ----
             STORAGE =       17210.1074               STORAGE =          68.9891
       CONSTANT HEAD =           0.0000         CONSTANT HEAD =           0.0000
               WELLS =      100000.0000                 WELLS =           0.0000
     HEAD DEP BOUNDS =      563787.5625       HEAD DEP BOUNDS =         588.5126

           TOTAL OUT =      680997.6875             TOTAL OUT =         657.5017

            IN - OUT =          -1.5000              IN - OUT =       2.5024E-03

 PERCENT DISCREPANCY =          -0.00     PERCENT DISCREPANCY =           0.00






         TIME SUMMARY AT END OF TIME STEP  100 IN STRESS PERIOD    5
                    SECONDS     MINUTES      HOURS       DAYS        YEARS
                    -----------------------------------------------------------
   TIME STEP LENGTH  86400.      1440.0      24.000      1.0000     2.73785E-03
 STRESS PERIOD TIME 8.64000E+06 1.44000E+05  2400.0      100.00     0.27379    
         TOTAL TIME 3.46464E+07 5.77440E+05  9624.0      401.00      1.0979    
1

 Run end date and time (yyyy/mm/dd hh:mm:ss): 2019/07/16 11:34:20
 Elapsed run time:  0.723 Seconds

