 LISTING FILE: Tutorial02wMT3DMS.list
                         UNIT  16

 OPENING mt3d_link.ftl
 FILE TYPE:FTL   UNIT  10

 OPENING Tutorial02wMT3DMS.btn
 FILE TYPE:BTN   UNIT  31

 OPENING Tutorial02wMT3DMS.adv
 FILE TYPE:ADV   UNIT  32

 OPENING Tutorial02wMT3DMS.dsp
 FILE TYPE:DSP   UNIT  33

 OPENING Tutorial02wMT3DMS.ssm
 FILE TYPE:SSM   UNIT  34

 OPENING Tutorial02wMT3DMS.gcg
 FILE TYPE:GCG   UNIT  35

                              +++++++++++++++++++++++++++++++++++++++++++++++++++++++++++++++++++++++
                              +                                                                     +
                              +                               MT3DMS                                +
                              +             A Modular 3D Multi-Species Transport Model              +
                              +    For Simulation of Advection, Dispersion and Chemical Reactions   +
                              +                of Contaminants in Groundwater Systems               +
                              +                                                                     +
                              +++++++++++++++++++++++++++++++++++++++++++++++++++++++++++++++++++++++

  ----- 
 | M T | ## BTN for MT3DMS, generated by Flopy.                                          
 | 3 D | ##                                                                              
  ----- 
 THE TRANSPORT MODEL CONSISTS OF     2 LAYER(S)   10 ROW(S)   10 COLUMN(S)
 NUMBER OF STRESS PERIOD(S) FOR TRANSPORT SIMULATION =    5
 NUMBER OF ALL COMPONENTS INCLUDED IN SIMULATION =    1
 NUMBER OF MOBILE COMPONENTS INCLUDED IN SIMULATION =    1
 UNIT FOR TIME IS D   ;  UNIT FOR LENGTH IS M   ;  UNIT FOR MASS IS KG  
 OPTIONAL PACKAGES INCLUDED IN CURRENT SIMULATION:
  o ADV   ON UNIT 32
  o DSP   ON UNIT 33
  o SSM   ON UNIT 34
  o GCG   ON UNIT 35

 BTN5 -- BASIC TRANSPORT PACKAGE, VERSION 5, FEBRUARY 2010, INPUT READ FROM UNIT 31
       3140 ELEMENTS OF THE  X ARRAY USED BY THE BTN PACKAGE
        202 ELEMENTS OF THE IX ARRAY USED BY THE BTN PACKAGE

 FMI5 -- FLOW MODEL INTERFACE PACKAGE, VERSION 5, FEBRUARY 2010, INPUT READ FROM UNIT 10
 FLOW MODEL IS TRANSIENT

 ADV5 -- ADVECTION PACKAGE, VERSION 5, FEBRUARY 2010, INPUT READ FROM UNIT 32
 ADVECTION IS SOLVED WITH THE [MOC] SCHEME
 COURANT NUMBER ALLOWED IN SOLVING THE ADVECTION TERM = 0.500    
 MAXIMUM NUMBER OF MOVING PARTICLES ALLOWED =  800000
    4000000 ELEMENTS OF THE  X ARRAY USED BY THE ADV PACKAGE
    2400200 ELEMENTS OF THE IX ARRAY USED BY THE ADV PACKAGE

 DSP5 -- DISPERSION PACKAGE, VERSION 5, FEBRUARY 2010, INPUT READ FROM UNIT 33
       2204 ELEMENTS OF THE  X ARRAY USED BY THE DSP PACKAGE
          0 ELEMENTS OF THE IX ARRAY USED BY THE DSP PACKAGE

 SSM5 -- SINK & SOURCE MIXING PACKAGE, VERSION 5, FEBRUARY 2010, INPUT READ FROM UNIT 34
 HEADER LINE OF THE SSM PACKAGE INPUT FILE:
  T F F F F T F F F F F F F F F F                                                                                                                                                                        
 MAJOR STRESS COMPONENTS PRESENT IN THE FLOW MODEL:
  o WELL [WEL]
  o GENERAL-HEAD-DEPENDENT BOUNDARY [GHB]
 MAXIMUM NUMBER OF POINT SINKS/SOURCES =      41
        533 ELEMENTS OF THE  X ARRAY USED BY THE SSM PACKAGE
          0 ELEMENTS OF THE IX ARRAY BY THE SSM PACKAGE

 GCG5 -- GENERALIZED CONJUGATE GRADIENT SOLVER PACKAGE, VERSION 5, FEBRUARY 2010 INPUT READ FROM UNIT 35
 MAXIMUM OF    1 OUTER ITERATIONS
        AND   50 INNER ITERATIONS ALLOWED FOR CLOSURE
 THE PRECONDITIONING TYPE SELECTED IS MODIFIED INCOMPLETE CHOLESKY (MIC).
 DISPERSION CROSS TERMS LUMPED INTO RIGHT-HAND-SIDE
       4450 ELEMENTS OF THE  X ARRAY USED BY THE GCG PACKAGE
        150 ELEMENTS OF THE IX ARRAY USED BY THE GCG PACKAGE

 ..........................................
 ELEMENTS OF THE  X ARRAY USED =   4010328
 ELEMENTS OF THE IX ARRAY USED =   2400553
 ..........................................

 LAYER NUMBER  AQUIFER TYPE
 ------------  ------------
       1            1
       2            1
                                       WIDTH ALONG ROWS (DELR)  =   100.0000    
                                       WIDTH ALONG COLS (DELC)  =   100.0000    
                                       TOP ELEV. OF 1ST LAYER   =   10.00000    
                                       CELL THICKNESS (DZ)      =   30.00000     FOR LAYER  1
                                       CELL THICKNESS (DZ)      =   30.00000     FOR LAYER  2
                                       POROSITY                 =  0.3000000     FOR LAYER  1
                                       POROSITY                 =  0.3000000     FOR LAYER  2
                                       CONCN. BOUNDARY ARRAY    =              1 FOR LAYER  1
                                       CONCN. BOUNDARY ARRAY    =              1 FOR LAYER  2
                                       INITIAL CONC.: COMP.  01 =   0.000000     FOR LAYER  1
                                       INITIAL CONC.: COMP.  01 =   0.000000     FOR LAYER  2

 VALUE INDICATING INACTIVE CONCENTRATION CELLS =   0.1000000E+31
 MINIMUM SATURATED THICKNESS [THKMIN] ALLOWED =  0.0100 OF TOTAL CELL THICKNESS


 OUTPUT CONTROL OPTIONS
 ----------------------

 DO NOT PRINT CELL CONCENTRATION
 DO NOT PRINT PARTICLE NUMBER IN EACH CELL
 DO NOT PRINT RETARDATION FACTOR
 DO NOT PRINT DISPERSION COEFFICIENT
 SAVE DISSOLVED PHASE CONCENTRATIONS IN UNFORMATTED FILES [MT3Dnnn.UCN]
  FOR EACH SPECIES ON UNITS 201 AND ABOVE

 NUMBER OF TIMES AT WHICH SIMULATION RESULTS ARE SAVED =    0

 NUMBER OF OBSERVATION POINTS =    3
 SAVE CONCENTRATIONS AT OBSERVATION POINTS IN FILES [MT3Dnnn.OBS]
  FOR EACH SPECIES ON UNITS 401 AND ABOVE, EVERY  1 TRANSPORT STEPS
 LOCATION OF OBSERVATION POINTS
 ..............................
 NUMBER  LAYER   ROW   COLUMN
   1        1      5      5
   2        1      8      5
   3        1      3      5

 SAVE ONE-LINE SUMMARY OF MASS BUDGETS IN FILES [MT3Dnnn.MAS]
  FOR EACH SPECIES ON UNITS 601 AND ABOVE, EVERY  1 TRANSPORT STEPS

 MAXIMUM LENGTH ALONG THE X (J) AXIS =   1000.000    
 MAXIMUM LENGTH ALONG THE Y (I) AXIS =   1000.000    
 MAXIMUM LENGTH ALONG THE Z (K) AXIS =   60.00000    


 ADVECTION SOLUTION OPTIONS
 --------------------------

 ADVECTION IS SOLVED WITH THE [MOC] SCHEME
 COURANT NUMBER ALLOWED IN SOLVING THE ADVECTION TERM = 0.500    
 MAXIMUM NUMBER OF MOVING PARTICLES ALLOWED =  800000
 METHOD FOR PARTICLE TRACKING IS [MIXED ORDER]
 CONCENTRATION WEIGHTING FACTOR [WD] =     0.500
 THE CONCENTRATION GRADIENT CONSIDERED NEGLIGIBLE [DCEPS] =  0.1000000E-04
 INITIAL PARTICLES ARE PLACED ON  1 VERTICAL PLANE(S) WITHIN CELL BLOCK
 PARTICLE NUMBER PER CELL IF DCCELL =< DCEPS =    0
 PARTICLE NUMBER PER CELL IF DCCELL  > DCEPS =   16
 MINIMUM PARTICLE NUMBER ALLOWD PER CELL     =    2
 MAXIMUM PARTICLE NUMBER ALLOWD PER CELL     =   32
 MULTIPLIER OF PARTICLE NUMBER AT SOURCE     =  1.00    


 DISPERSION INPUT PARAMETERS
 ---------------------------

                                       LONG. DISPERSIVITY (AL)  =   10.00000     FOR LAYER  1
                                       LONG. DISPERSIVITY (AL)  =   10.00000     FOR LAYER  2
                                       H. TRANS./LONG. DISP.    =  0.3000000    
                                       V. TRANS./LONG. DISP.    =  0.1000000E-01
                                       DIFFUSION COEFFICIENT    =  0.1000000E-08



                                               SOLUTION BY THE GENERALIZED CONJUGATE GRADIENT METHOD
                                               -----------------------------------------------------
                                     MAXIMUM OUTER ITERATIONS ALLOWED FOR CLOSURE =        1
                                     MAXIMUM INNER ITERATIONS ALLOWED FOR CLOSURE =       50
                                                    PRECONDITIONING TYPE SELECTED =    3
                                                           ACCELERATION PARAMETER =     1.0000    
                                       CONCENTRATION CHANGE CRITERION FOR CLOSURE =    0.10000E-04
                                       GCG CONCENTRATION CHANGE PRINTOUT INTERVAL =      999


                                   ++++++++++++++++++++++++++++++++++++++++++++++++++++++++++++++
                                                       STRESS PERIOD NO.  001
                                   ++++++++++++++++++++++++++++++++++++++++++++++++++++++++++++++


 LENGTH OF CURRENT STRESS PERIOD =   1.000000    
 NUMBER OF TIME STEPS FOR CURRENT STRESS PERIOD =    1
 TIME STEP MULTIPLIER USED IN FLOW SOLUTION =   1.000000    

 ***Type of Transport Simulation is TRANSIENT

 USER-SPECIFIED TRANSPORT STEPSIZE =   0.000000    D   
 MAXIMUM NUMBER OF TRANSPORT STEPS ALLOWED  IN ONE FLOW TIME STEP =     50000
 MULTIPLIER FOR SUCCESSIVE TRANSPORT STEPS  [USED IN IMPLICIT SCHEMES] =     1.000
 MAXIMUM TRANSPORT STEP SIZE  [USED IN IMPLICIT SCHEMES] =   0.000000    D   

       NO    LAYER   ROW   COLUMN   CONCENTRATION       TYPE            COMPONENT


                                          ================================================
                                                         TIME STEP NO.  001
                                          ================================================

 FROM TIME =   0.0000     TO    1.0000    


                    "THKSAT          " FLOW TERMS FOR TIME STEP  1, STRESS PERIOD  1 READ UNFORMATTED ON UNIT 10
                    --------------------------------------------------------------------------------------------

                    "QXX             " FLOW TERMS FOR TIME STEP  1, STRESS PERIOD  1 READ UNFORMATTED ON UNIT 10
                    --------------------------------------------------------------------------------------------

                    "QYY             " FLOW TERMS FOR TIME STEP  1, STRESS PERIOD  1 READ UNFORMATTED ON UNIT 10
                    --------------------------------------------------------------------------------------------

                    "QZZ             " FLOW TERMS FOR TIME STEP  1, STRESS PERIOD  1 READ UNFORMATTED ON UNIT 10
                    --------------------------------------------------------------------------------------------

                    "STO             " FLOW TERMS FOR TIME STEP  1, STRESS PERIOD  1 READ UNFORMATTED ON UNIT 10
                    --------------------------------------------------------------------------------------------

 MAXIMUM STEPSIZE DURING WHICH ANY PARTICLE CANNOT MOVE MORE THAN ONE CELL
 = 0.1000E+31(WHEN MIN. R.F.=1)  AT K=****, I=****, J=****

 MAXIMUM STEPSIZE WHICH MEETS STABILITY CRITERION OF THE ADVECTION TERM
 (FOR PURE FINITE-DIFFERENCE OPTION, MIXELM=0) 
 = 0.1000E+31(WHEN MIN. R.F.=1)  AT K=****, I=****, J=****

                    "CNH             " FLOW TERMS FOR TIME STEP  1, STRESS PERIOD  1 READ UNFORMATTED ON UNIT 10
                    --------------------------------------------------------------------------------------------

                    "WEL             " FLOW TERMS FOR TIME STEP  1, STRESS PERIOD  1 READ UNFORMATTED ON UNIT 10
                    --------------------------------------------------------------------------------------------

                    "GHB             " FLOW TERMS FOR TIME STEP  1, STRESS PERIOD  1 READ UNFORMATTED ON UNIT 10
                    --------------------------------------------------------------------------------------------


 TOTAL NUMBER OF POINT SOURCES/SINKS PRESENT IN THE FLOW MODEL =    41

 MAXIMUM STEPSIZE WHICH MEETS STABILITY CRITERION OF THE SINK & SOURCE TERM
 = 0.1000E+31(WHEN MIN. R.F.=1)  AT K=   0, I=   0, J=   0

 MAXIMUM STEPSIZE WHICH MEETS STABILITY CRITERION OF THE DISPERSION TERM
 = 0.3814E+12(WHEN MIN. R.F.=1)  AT K=   1, I=   1, J=   1


     1 CALLS TO GCG PACKAGE FOR TRANSPORT TIME STEP   1 IN FLOW TIME STEP   1 STRESS PERIOD   1
     1 TOTAL ITERATIONS
  MAXIMUM CONCENTRATION CHANGES FOR EACH ITERATION:
  MAX. CHANGE LAYER,ROW,COL MAX. CHANGE LAYER,ROW,COL MAX. CHANGE LAYER,ROW,COL MAX. CHANGE LAYER,ROW,COL MAX. CHANGE LAYER,ROW,COL
 ------------------------------------------------------------------------------------------------------------------------------------
    0.000     (  1,  1,  1)



 >>>>>>>>>>>>>>>>>>>>>>>>>>>>>>>>>>>>>>>>>>>>>>>>>>>>>>>FOR COMPONENT NO. 01<<<<<<<<<<<<<<<<<<<<<<<<<<<<<<<<<<<<<<<<<<<<<<<<<<<<<<<


                                            -------------------------------------------
                                                      TRANSPORT STEP NO.    1
                                            -------------------------------------------

 TOTAL ELAPSED TIME SINCE BEGINNING OF SIMULATION =   1.000000    D   
 .....................................................................

 TOTAL PARTICLES USED IN THE CURRENT STEP =         0
 PARTICLES ADDED AT BEGINNING OF THE STEP =         0
 PARTICLES REMOVED AT END OF LAST STEP    =         0

                     CUMMULATIVE MASS BUDGETS AT END OF TRANSPORT STEP    1, TIME STEP    1, STRESS PERIOD    1
                     ------------------------------------------------------------------------------------------

                                                             IN                           OUT
                                                      ----------------             ----------------
                               CONSTANT CONCENTRATION:    0.000000                    0.000000    
                                        CONSTANT HEAD:    0.000000                    0.000000    
                                                WELLS:    0.000000                    0.000000    
                              HEAD-DEPENDENT BOUNDARY:    0.000000                    0.000000    
                                MASS STORAGE (SOLUTE):    0.000000                    0.000000    
                            ---------------------------------------------------------------------------
                                              [TOTAL]:    0.000000     KG             0.000000     KG  

                                                          NET (IN - OUT):    0.000000    
                                                   DISCREPANCY (PERCENT):    0.000000    


                                   ++++++++++++++++++++++++++++++++++++++++++++++++++++++++++++++
                                                       STRESS PERIOD NO.  002
                                   ++++++++++++++++++++++++++++++++++++++++++++++++++++++++++++++


 LENGTH OF CURRENT STRESS PERIOD =   100.0000    
 NUMBER OF TIME STEPS FOR CURRENT STRESS PERIOD =  100
 TIME STEP MULTIPLIER USED IN FLOW SOLUTION =   1.000000    

 ***Type of Transport Simulation is TRANSIENT

 USER-SPECIFIED TRANSPORT STEPSIZE =   0.000000    D   
 MAXIMUM NUMBER OF TRANSPORT STEPS ALLOWED  IN ONE FLOW TIME STEP =     50000
 MULTIPLIER FOR SUCCESSIVE TRANSPORT STEPS  [USED IN IMPLICIT SCHEMES] =     1.000
 MAXIMUM TRANSPORT STEP SIZE  [USED IN IMPLICIT SCHEMES] =   0.000000    D   

       NO    LAYER   ROW   COLUMN   CONCENTRATION       TYPE            COMPONENT
       1       1       5       5       1000.000         WELL                1


                                          ================================================
                                                         TIME STEP NO.  001
                                          ================================================

 FROM TIME =   1.0000     TO    2.0000    


                    "THKSAT          " FLOW TERMS FOR TIME STEP  1, STRESS PERIOD  2 READ UNFORMATTED ON UNIT 10
                    --------------------------------------------------------------------------------------------

                    "QXX             " FLOW TERMS FOR TIME STEP  1, STRESS PERIOD  2 READ UNFORMATTED ON UNIT 10
                    --------------------------------------------------------------------------------------------

                    "QYY             " FLOW TERMS FOR TIME STEP  1, STRESS PERIOD  2 READ UNFORMATTED ON UNIT 10
                    --------------------------------------------------------------------------------------------

                    "QZZ             " FLOW TERMS FOR TIME STEP  1, STRESS PERIOD  2 READ UNFORMATTED ON UNIT 10
                    --------------------------------------------------------------------------------------------

                    "STO             " FLOW TERMS FOR TIME STEP  1, STRESS PERIOD  2 READ UNFORMATTED ON UNIT 10
                    --------------------------------------------------------------------------------------------

 MAXIMUM STEPSIZE DURING WHICH ANY PARTICLE CANNOT MOVE MORE THAN ONE CELL
 =  333.9    (WHEN MIN. R.F.=1)  AT K=   2, I=   1, J=  10

 MAXIMUM STEPSIZE WHICH MEETS STABILITY CRITERION OF THE ADVECTION TERM
 (FOR PURE FINITE-DIFFERENCE OPTION, MIXELM=0) 
 =  112.2    (WHEN MIN. R.F.=1)  AT K=   2, I=   5, J=  10

                    "CNH             " FLOW TERMS FOR TIME STEP  1, STRESS PERIOD  2 READ UNFORMATTED ON UNIT 10
                    --------------------------------------------------------------------------------------------

                    "WEL             " FLOW TERMS FOR TIME STEP  1, STRESS PERIOD  2 READ UNFORMATTED ON UNIT 10
                    --------------------------------------------------------------------------------------------

                    "GHB             " FLOW TERMS FOR TIME STEP  1, STRESS PERIOD  2 READ UNFORMATTED ON UNIT 10
                    --------------------------------------------------------------------------------------------


 TOTAL NUMBER OF POINT SOURCES/SINKS PRESENT IN THE FLOW MODEL =    41

 MAXIMUM STEPSIZE WHICH MEETS STABILITY CRITERION OF THE SINK & SOURCE TERM
 =  180.0    (WHEN MIN. R.F.=1)  AT K=   1, I=   5, J=   5

 MAXIMUM STEPSIZE WHICH MEETS STABILITY CRITERION OF THE DISPERSION TERM
 =  229.0    (WHEN MIN. R.F.=1)  AT K=   1, I=   9, J=  10


     1 CALLS TO GCG PACKAGE FOR TRANSPORT TIME STEP   1 IN FLOW TIME STEP   1 STRESS PERIOD   2
     2 TOTAL ITERATIONS
  MAXIMUM CONCENTRATION CHANGES FOR EACH ITERATION:
  MAX. CHANGE LAYER,ROW,COL MAX. CHANGE LAYER,ROW,COL MAX. CHANGE LAYER,ROW,COL MAX. CHANGE LAYER,ROW,COL MAX. CHANGE LAYER,ROW,COL
 ------------------------------------------------------------------------------------------------------------------------------------
    5.520     (  1,  5,  5)  0.3131E-08 (  1,  4,  6)


                                          ================================================
                                                         TIME STEP NO.  002
                                          ================================================

 FROM TIME =   2.0000     TO    3.0000    


                    "THKSAT          " FLOW TERMS FOR TIME STEP  2, STRESS PERIOD  2 READ UNFORMATTED ON UNIT 10
                    --------------------------------------------------------------------------------------------

                    "QXX             " FLOW TERMS FOR TIME STEP  2, STRESS PERIOD  2 READ UNFORMATTED ON UNIT 10
                    --------------------------------------------------------------------------------------------

                    "QYY             " FLOW TERMS FOR TIME STEP  2, STRESS PERIOD  2 READ UNFORMATTED ON UNIT 10
                    --------------------------------------------------------------------------------------------

                    "QZZ             " FLOW TERMS FOR TIME STEP  2, STRESS PERIOD  2 READ UNFORMATTED ON UNIT 10
                    --------------------------------------------------------------------------------------------

                    "STO             " FLOW TERMS FOR TIME STEP  2, STRESS PERIOD  2 READ UNFORMATTED ON UNIT 10
                    --------------------------------------------------------------------------------------------

 MAXIMUM STEPSIZE DURING WHICH ANY PARTICLE CANNOT MOVE MORE THAN ONE CELL
 =  570.1    (WHEN MIN. R.F.=1)  AT K=   1, I=   5, J=  10

 MAXIMUM STEPSIZE WHICH MEETS STABILITY CRITERION OF THE ADVECTION TERM
 (FOR PURE FINITE-DIFFERENCE OPTION, MIXELM=0) 
 =  194.6    (WHEN MIN. R.F.=1)  AT K=   2, I=  10, J=   9

                    "CNH             " FLOW TERMS FOR TIME STEP  2, STRESS PERIOD  2 READ UNFORMATTED ON UNIT 10
                    --------------------------------------------------------------------------------------------

                    "WEL             " FLOW TERMS FOR TIME STEP  2, STRESS PERIOD  2 READ UNFORMATTED ON UNIT 10
                    --------------------------------------------------------------------------------------------

                    "GHB             " FLOW TERMS FOR TIME STEP  2, STRESS PERIOD  2 READ UNFORMATTED ON UNIT 10
                    --------------------------------------------------------------------------------------------


 TOTAL NUMBER OF POINT SOURCES/SINKS PRESENT IN THE FLOW MODEL =    41

 MAXIMUM STEPSIZE WHICH MEETS STABILITY CRITERION OF THE SINK & SOURCE TERM
 =  180.0    (WHEN MIN. R.F.=1)  AT K=   1, I=   5, J=   5

 MAXIMUM STEPSIZE WHICH MEETS STABILITY CRITERION OF THE DISPERSION TERM
 =  543.1    (WHEN MIN. R.F.=1)  AT K=   1, I=   5, J=   5


     1 CALLS TO GCG PACKAGE FOR TRANSPORT TIME STEP   1 IN FLOW TIME STEP   2 STRESS PERIOD   2
     2 TOTAL ITERATIONS
  MAXIMUM CONCENTRATION CHANGES FOR EACH ITERATION:
  MAX. CHANGE LAYER,ROW,COL MAX. CHANGE LAYER,ROW,COL MAX. CHANGE LAYER,ROW,COL MAX. CHANGE LAYER,ROW,COL MAX. CHANGE LAYER,ROW,COL
 ------------------------------------------------------------------------------------------------------------------------------------
   0.9933     (  1,  5,  5)  0.9841E-09 (  1,  4,  6)


                                          ================================================
                                                         TIME STEP NO.  003
                                          ================================================

 FROM TIME =   3.0000     TO    4.0000    


                    "THKSAT          " FLOW TERMS FOR TIME STEP  3, STRESS PERIOD  2 READ UNFORMATTED ON UNIT 10
                    --------------------------------------------------------------------------------------------

                    "QXX             " FLOW TERMS FOR TIME STEP  3, STRESS PERIOD  2 READ UNFORMATTED ON UNIT 10
                    --------------------------------------------------------------------------------------------

                    "QYY             " FLOW TERMS FOR TIME STEP  3, STRESS PERIOD  2 READ UNFORMATTED ON UNIT 10
                    --------------------------------------------------------------------------------------------

                    "QZZ             " FLOW TERMS FOR TIME STEP  3, STRESS PERIOD  2 READ UNFORMATTED ON UNIT 10
                    --------------------------------------------------------------------------------------------

                    "STO             " FLOW TERMS FOR TIME STEP  3, STRESS PERIOD  2 READ UNFORMATTED ON UNIT 10
                    --------------------------------------------------------------------------------------------

 MAXIMUM STEPSIZE DURING WHICH ANY PARTICLE CANNOT MOVE MORE THAN ONE CELL
 =  581.0    (WHEN MIN. R.F.=1)  AT K=   1, I=   5, J=  10

 MAXIMUM STEPSIZE WHICH MEETS STABILITY CRITERION OF THE ADVECTION TERM
 (FOR PURE FINITE-DIFFERENCE OPTION, MIXELM=0) 
 =  205.0    (WHEN MIN. R.F.=1)  AT K=   2, I=  10, J=   9

                    "CNH             " FLOW TERMS FOR TIME STEP  3, STRESS PERIOD  2 READ UNFORMATTED ON UNIT 10
                    --------------------------------------------------------------------------------------------

                    "WEL             " FLOW TERMS FOR TIME STEP  3, STRESS PERIOD  2 READ UNFORMATTED ON UNIT 10
                    --------------------------------------------------------------------------------------------

                    "GHB             " FLOW TERMS FOR TIME STEP  3, STRESS PERIOD  2 READ UNFORMATTED ON UNIT 10
                    --------------------------------------------------------------------------------------------


 TOTAL NUMBER OF POINT SOURCES/SINKS PRESENT IN THE FLOW MODEL =    41

 MAXIMUM STEPSIZE WHICH MEETS STABILITY CRITERION OF THE SINK & SOURCE TERM
 =  180.0    (WHEN MIN. R.F.=1)  AT K=   1, I=   5, J=   5

 MAXIMUM STEPSIZE WHICH MEETS STABILITY CRITERION OF THE DISPERSION TERM
 =  538.2    (WHEN MIN. R.F.=1)  AT K=   1, I=   5, J=   5


     1 CALLS TO GCG PACKAGE FOR TRANSPORT TIME STEP   1 IN FLOW TIME STEP   3 STRESS PERIOD   2
     2 TOTAL ITERATIONS
  MAXIMUM CONCENTRATION CHANGES FOR EACH ITERATION:
  MAX. CHANGE LAYER,ROW,COL MAX. CHANGE LAYER,ROW,COL MAX. CHANGE LAYER,ROW,COL MAX. CHANGE LAYER,ROW,COL MAX. CHANGE LAYER,ROW,COL
 ------------------------------------------------------------------------------------------------------------------------------------
   0.4950     (  1,  5,  5)  0.5903E-09 (  1,  4,  6)


                                          ================================================
                                                         TIME STEP NO.  004
                                          ================================================

 FROM TIME =   4.0000     TO    5.0000    


                    "THKSAT          " FLOW TERMS FOR TIME STEP  4, STRESS PERIOD  2 READ UNFORMATTED ON UNIT 10
                    --------------------------------------------------------------------------------------------

                    "QXX             " FLOW TERMS FOR TIME STEP  4, STRESS PERIOD  2 READ UNFORMATTED ON UNIT 10
                    --------------------------------------------------------------------------------------------

                    "QYY             " FLOW TERMS FOR TIME STEP  4, STRESS PERIOD  2 READ UNFORMATTED ON UNIT 10
                    --------------------------------------------------------------------------------------------

                    "QZZ             " FLOW TERMS FOR TIME STEP  4, STRESS PERIOD  2 READ UNFORMATTED ON UNIT 10
                    --------------------------------------------------------------------------------------------

                    "STO             " FLOW TERMS FOR TIME STEP  4, STRESS PERIOD  2 READ UNFORMATTED ON UNIT 10
                    --------------------------------------------------------------------------------------------

 MAXIMUM STEPSIZE DURING WHICH ANY PARTICLE CANNOT MOVE MORE THAN ONE CELL
 =  604.3    (WHEN MIN. R.F.=1)  AT K=   1, I=   5, J=  10

 MAXIMUM STEPSIZE WHICH MEETS STABILITY CRITERION OF THE ADVECTION TERM
 (FOR PURE FINITE-DIFFERENCE OPTION, MIXELM=0) 
 =  216.3    (WHEN MIN. R.F.=1)  AT K=   2, I=  10, J=   9

                    "CNH             " FLOW TERMS FOR TIME STEP  4, STRESS PERIOD  2 READ UNFORMATTED ON UNIT 10
                    --------------------------------------------------------------------------------------------

                    "WEL             " FLOW TERMS FOR TIME STEP  4, STRESS PERIOD  2 READ UNFORMATTED ON UNIT 10
                    --------------------------------------------------------------------------------------------

                    "GHB             " FLOW TERMS FOR TIME STEP  4, STRESS PERIOD  2 READ UNFORMATTED ON UNIT 10
                    --------------------------------------------------------------------------------------------


 TOTAL NUMBER OF POINT SOURCES/SINKS PRESENT IN THE FLOW MODEL =    41

 MAXIMUM STEPSIZE WHICH MEETS STABILITY CRITERION OF THE SINK & SOURCE TERM
 =  180.0    (WHEN MIN. R.F.=1)  AT K=   1, I=   5, J=   5

 MAXIMUM STEPSIZE WHICH MEETS STABILITY CRITERION OF THE DISPERSION TERM
 =  536.4    (WHEN MIN. R.F.=1)  AT K=   1, I=   5, J=   5


     1 CALLS TO GCG PACKAGE FOR TRANSPORT TIME STEP   1 IN FLOW TIME STEP   4 STRESS PERIOD   2
     2 TOTAL ITERATIONS
  MAXIMUM CONCENTRATION CHANGES FOR EACH ITERATION:
  MAX. CHANGE LAYER,ROW,COL MAX. CHANGE LAYER,ROW,COL MAX. CHANGE LAYER,ROW,COL MAX. CHANGE LAYER,ROW,COL MAX. CHANGE LAYER,ROW,COL
 ------------------------------------------------------------------------------------------------------------------------------------
   0.3289     (  1,  5,  5)  0.4302E-09 (  1,  4,  6)


                                          ================================================
                                                         TIME STEP NO.  005
                                          ================================================

 FROM TIME =   5.0000     TO    6.0000    


                    "THKSAT          " FLOW TERMS FOR TIME STEP  5, STRESS PERIOD  2 READ UNFORMATTED ON UNIT 10
                    --------------------------------------------------------------------------------------------

                    "QXX             " FLOW TERMS FOR TIME STEP  5, STRESS PERIOD  2 READ UNFORMATTED ON UNIT 10
                    --------------------------------------------------------------------------------------------

                    "QYY             " FLOW TERMS FOR TIME STEP  5, STRESS PERIOD  2 READ UNFORMATTED ON UNIT 10
                    --------------------------------------------------------------------------------------------

                    "QZZ             " FLOW TERMS FOR TIME STEP  5, STRESS PERIOD  2 READ UNFORMATTED ON UNIT 10
                    --------------------------------------------------------------------------------------------

                    "STO             " FLOW TERMS FOR TIME STEP  5, STRESS PERIOD  2 READ UNFORMATTED ON UNIT 10
                    --------------------------------------------------------------------------------------------

 MAXIMUM STEPSIZE DURING WHICH ANY PARTICLE CANNOT MOVE MORE THAN ONE CELL
 =  623.7    (WHEN MIN. R.F.=1)  AT K=   2, I=   5, J=   9

 MAXIMUM STEPSIZE WHICH MEETS STABILITY CRITERION OF THE ADVECTION TERM
 (FOR PURE FINITE-DIFFERENCE OPTION, MIXELM=0) 
 =  227.8    (WHEN MIN. R.F.=1)  AT K=   2, I=  10, J=   9

                    "CNH             " FLOW TERMS FOR TIME STEP  5, STRESS PERIOD  2 READ UNFORMATTED ON UNIT 10
                    --------------------------------------------------------------------------------------------

                    "WEL             " FLOW TERMS FOR TIME STEP  5, STRESS PERIOD  2 READ UNFORMATTED ON UNIT 10
                    --------------------------------------------------------------------------------------------

                    "GHB             " FLOW TERMS FOR TIME STEP  5, STRESS PERIOD  2 READ UNFORMATTED ON UNIT 10
                    --------------------------------------------------------------------------------------------


 TOTAL NUMBER OF POINT SOURCES/SINKS PRESENT IN THE FLOW MODEL =    41

 MAXIMUM STEPSIZE WHICH MEETS STABILITY CRITERION OF THE SINK & SOURCE TERM
 =  180.0    (WHEN MIN. R.F.=1)  AT K=   1, I=   5, J=   5

 MAXIMUM STEPSIZE WHICH MEETS STABILITY CRITERION OF THE DISPERSION TERM
 =  535.4    (WHEN MIN. R.F.=1)  AT K=   1, I=   5, J=   5


     1 CALLS TO GCG PACKAGE FOR TRANSPORT TIME STEP   1 IN FLOW TIME STEP   5 STRESS PERIOD   2
     2 TOTAL ITERATIONS
  MAXIMUM CONCENTRATION CHANGES FOR EACH ITERATION:
  MAX. CHANGE LAYER,ROW,COL MAX. CHANGE LAYER,ROW,COL MAX. CHANGE LAYER,ROW,COL MAX. CHANGE LAYER,ROW,COL MAX. CHANGE LAYER,ROW,COL
 ------------------------------------------------------------------------------------------------------------------------------------
   0.2458     (  1,  5,  5)  0.3411E-09 (  1,  4,  6)


                                          ================================================
                                                         TIME STEP NO.  006
                                          ================================================

 FROM TIME =   6.0000     TO    7.0000    


                    "THKSAT          " FLOW TERMS FOR TIME STEP  6, STRESS PERIOD  2 READ UNFORMATTED ON UNIT 10
                    --------------------------------------------------------------------------------------------

                    "QXX             " FLOW TERMS FOR TIME STEP  6, STRESS PERIOD  2 READ UNFORMATTED ON UNIT 10
                    --------------------------------------------------------------------------------------------

                    "QYY             " FLOW TERMS FOR TIME STEP  6, STRESS PERIOD  2 READ UNFORMATTED ON UNIT 10
                    --------------------------------------------------------------------------------------------

                    "QZZ             " FLOW TERMS FOR TIME STEP  6, STRESS PERIOD  2 READ UNFORMATTED ON UNIT 10
                    --------------------------------------------------------------------------------------------

                    "STO             " FLOW TERMS FOR TIME STEP  6, STRESS PERIOD  2 READ UNFORMATTED ON UNIT 10
                    --------------------------------------------------------------------------------------------

 MAXIMUM STEPSIZE DURING WHICH ANY PARTICLE CANNOT MOVE MORE THAN ONE CELL
 =  628.7    (WHEN MIN. R.F.=1)  AT K=   2, I=   5, J=   9

 MAXIMUM STEPSIZE WHICH MEETS STABILITY CRITERION OF THE ADVECTION TERM
 (FOR PURE FINITE-DIFFERENCE OPTION, MIXELM=0) 
 =  239.4    (WHEN MIN. R.F.=1)  AT K=   2, I=  10, J=   9

                    "CNH             " FLOW TERMS FOR TIME STEP  6, STRESS PERIOD  2 READ UNFORMATTED ON UNIT 10
                    --------------------------------------------------------------------------------------------

                    "WEL             " FLOW TERMS FOR TIME STEP  6, STRESS PERIOD  2 READ UNFORMATTED ON UNIT 10
                    --------------------------------------------------------------------------------------------

                    "GHB             " FLOW TERMS FOR TIME STEP  6, STRESS PERIOD  2 READ UNFORMATTED ON UNIT 10
                    --------------------------------------------------------------------------------------------


 TOTAL NUMBER OF POINT SOURCES/SINKS PRESENT IN THE FLOW MODEL =    41

 MAXIMUM STEPSIZE WHICH MEETS STABILITY CRITERION OF THE SINK & SOURCE TERM
 =  180.0    (WHEN MIN. R.F.=1)  AT K=   1, I=   5, J=   5

 MAXIMUM STEPSIZE WHICH MEETS STABILITY CRITERION OF THE DISPERSION TERM
 =  534.7    (WHEN MIN. R.F.=1)  AT K=   1, I=   5, J=   5


     1 CALLS TO GCG PACKAGE FOR TRANSPORT TIME STEP   1 IN FLOW TIME STEP   6 STRESS PERIOD   2
     2 TOTAL ITERATIONS
  MAXIMUM CONCENTRATION CHANGES FOR EACH ITERATION:
  MAX. CHANGE LAYER,ROW,COL MAX. CHANGE LAYER,ROW,COL MAX. CHANGE LAYER,ROW,COL MAX. CHANGE LAYER,ROW,COL MAX. CHANGE LAYER,ROW,COL
 ------------------------------------------------------------------------------------------------------------------------------------
   0.1960     (  1,  5,  5)  0.2856E-09 (  1,  4,  6)


                                          ================================================
                                                         TIME STEP NO.  007
                                          ================================================

 FROM TIME =   7.0000     TO    8.0000    


                    "THKSAT          " FLOW TERMS FOR TIME STEP  7, STRESS PERIOD  2 READ UNFORMATTED ON UNIT 10
                    --------------------------------------------------------------------------------------------

                    "QXX             " FLOW TERMS FOR TIME STEP  7, STRESS PERIOD  2 READ UNFORMATTED ON UNIT 10
                    --------------------------------------------------------------------------------------------

                    "QYY             " FLOW TERMS FOR TIME STEP  7, STRESS PERIOD  2 READ UNFORMATTED ON UNIT 10
                    --------------------------------------------------------------------------------------------

                    "QZZ             " FLOW TERMS FOR TIME STEP  7, STRESS PERIOD  2 READ UNFORMATTED ON UNIT 10
                    --------------------------------------------------------------------------------------------

                    "STO             " FLOW TERMS FOR TIME STEP  7, STRESS PERIOD  2 READ UNFORMATTED ON UNIT 10
                    --------------------------------------------------------------------------------------------

 MAXIMUM STEPSIZE DURING WHICH ANY PARTICLE CANNOT MOVE MORE THAN ONE CELL
 =  634.1    (WHEN MIN. R.F.=1)  AT K=   2, I=   5, J=   9

 MAXIMUM STEPSIZE WHICH MEETS STABILITY CRITERION OF THE ADVECTION TERM
 (FOR PURE FINITE-DIFFERENCE OPTION, MIXELM=0) 
 =  251.1    (WHEN MIN. R.F.=1)  AT K=   2, I=  10, J=   9

                    "CNH             " FLOW TERMS FOR TIME STEP  7, STRESS PERIOD  2 READ UNFORMATTED ON UNIT 10
                    --------------------------------------------------------------------------------------------

                    "WEL             " FLOW TERMS FOR TIME STEP  7, STRESS PERIOD  2 READ UNFORMATTED ON UNIT 10
                    --------------------------------------------------------------------------------------------

                    "GHB             " FLOW TERMS FOR TIME STEP  7, STRESS PERIOD  2 READ UNFORMATTED ON UNIT 10
                    --------------------------------------------------------------------------------------------


 TOTAL NUMBER OF POINT SOURCES/SINKS PRESENT IN THE FLOW MODEL =    41

 MAXIMUM STEPSIZE WHICH MEETS STABILITY CRITERION OF THE SINK & SOURCE TERM
 =  180.0    (WHEN MIN. R.F.=1)  AT K=   1, I=   5, J=   5

 MAXIMUM STEPSIZE WHICH MEETS STABILITY CRITERION OF THE DISPERSION TERM
 =  534.2    (WHEN MIN. R.F.=1)  AT K=   1, I=   5, J=   5


     1 CALLS TO GCG PACKAGE FOR TRANSPORT TIME STEP   1 IN FLOW TIME STEP   7 STRESS PERIOD   2
     2 TOTAL ITERATIONS
  MAXIMUM CONCENTRATION CHANGES FOR EACH ITERATION:
  MAX. CHANGE LAYER,ROW,COL MAX. CHANGE LAYER,ROW,COL MAX. CHANGE LAYER,ROW,COL MAX. CHANGE LAYER,ROW,COL MAX. CHANGE LAYER,ROW,COL
 ------------------------------------------------------------------------------------------------------------------------------------
   0.1628     (  1,  5,  5)  0.2456E-09 (  1,  4,  6)


                                          ================================================
                                                         TIME STEP NO.  008
                                          ================================================

 FROM TIME =   8.0000     TO    9.0000    


                    "THKSAT          " FLOW TERMS FOR TIME STEP  8, STRESS PERIOD  2 READ UNFORMATTED ON UNIT 10
                    --------------------------------------------------------------------------------------------

                    "QXX             " FLOW TERMS FOR TIME STEP  8, STRESS PERIOD  2 READ UNFORMATTED ON UNIT 10
                    --------------------------------------------------------------------------------------------

                    "QYY             " FLOW TERMS FOR TIME STEP  8, STRESS PERIOD  2 READ UNFORMATTED ON UNIT 10
                    --------------------------------------------------------------------------------------------

                    "QZZ             " FLOW TERMS FOR TIME STEP  8, STRESS PERIOD  2 READ UNFORMATTED ON UNIT 10
                    --------------------------------------------------------------------------------------------

                    "STO             " FLOW TERMS FOR TIME STEP  8, STRESS PERIOD  2 READ UNFORMATTED ON UNIT 10
                    --------------------------------------------------------------------------------------------

 MAXIMUM STEPSIZE DURING WHICH ANY PARTICLE CANNOT MOVE MORE THAN ONE CELL
 =  639.9    (WHEN MIN. R.F.=1)  AT K=   2, I=   5, J=   9

 MAXIMUM STEPSIZE WHICH MEETS STABILITY CRITERION OF THE ADVECTION TERM
 (FOR PURE FINITE-DIFFERENCE OPTION, MIXELM=0) 
 =  262.8    (WHEN MIN. R.F.=1)  AT K=   2, I=  10, J=   9

                    "CNH             " FLOW TERMS FOR TIME STEP  8, STRESS PERIOD  2 READ UNFORMATTED ON UNIT 10
                    --------------------------------------------------------------------------------------------

                    "WEL             " FLOW TERMS FOR TIME STEP  8, STRESS PERIOD  2 READ UNFORMATTED ON UNIT 10
                    --------------------------------------------------------------------------------------------

                    "GHB             " FLOW TERMS FOR TIME STEP  8, STRESS PERIOD  2 READ UNFORMATTED ON UNIT 10
                    --------------------------------------------------------------------------------------------


 TOTAL NUMBER OF POINT SOURCES/SINKS PRESENT IN THE FLOW MODEL =    41

 MAXIMUM STEPSIZE WHICH MEETS STABILITY CRITERION OF THE SINK & SOURCE TERM
 =  180.0    (WHEN MIN. R.F.=1)  AT K=   1, I=   5, J=   5

 MAXIMUM STEPSIZE WHICH MEETS STABILITY CRITERION OF THE DISPERSION TERM
 =  533.8    (WHEN MIN. R.F.=1)  AT K=   1, I=   5, J=   5


     1 CALLS TO GCG PACKAGE FOR TRANSPORT TIME STEP   1 IN FLOW TIME STEP   8 STRESS PERIOD   2
     2 TOTAL ITERATIONS
  MAXIMUM CONCENTRATION CHANGES FOR EACH ITERATION:
  MAX. CHANGE LAYER,ROW,COL MAX. CHANGE LAYER,ROW,COL MAX. CHANGE LAYER,ROW,COL MAX. CHANGE LAYER,ROW,COL MAX. CHANGE LAYER,ROW,COL
 ------------------------------------------------------------------------------------------------------------------------------------
   0.1391     (  1,  5,  5)  0.2328E-09 (  2,  5,  5)


                                          ================================================
                                                         TIME STEP NO.  009
                                          ================================================

 FROM TIME =   9.0000     TO    10.000    


                    "THKSAT          " FLOW TERMS FOR TIME STEP  9, STRESS PERIOD  2 READ UNFORMATTED ON UNIT 10
                    --------------------------------------------------------------------------------------------

                    "QXX             " FLOW TERMS FOR TIME STEP  9, STRESS PERIOD  2 READ UNFORMATTED ON UNIT 10
                    --------------------------------------------------------------------------------------------

                    "QYY             " FLOW TERMS FOR TIME STEP  9, STRESS PERIOD  2 READ UNFORMATTED ON UNIT 10
                    --------------------------------------------------------------------------------------------

                    "QZZ             " FLOW TERMS FOR TIME STEP  9, STRESS PERIOD  2 READ UNFORMATTED ON UNIT 10
                    --------------------------------------------------------------------------------------------

                    "STO             " FLOW TERMS FOR TIME STEP  9, STRESS PERIOD  2 READ UNFORMATTED ON UNIT 10
                    --------------------------------------------------------------------------------------------

 MAXIMUM STEPSIZE DURING WHICH ANY PARTICLE CANNOT MOVE MORE THAN ONE CELL
 =  646.0    (WHEN MIN. R.F.=1)  AT K=   2, I=   5, J=   9

 MAXIMUM STEPSIZE WHICH MEETS STABILITY CRITERION OF THE ADVECTION TERM
 (FOR PURE FINITE-DIFFERENCE OPTION, MIXELM=0) 
 =  274.6    (WHEN MIN. R.F.=1)  AT K=   2, I=  10, J=   9

                    "CNH             " FLOW TERMS FOR TIME STEP  9, STRESS PERIOD  2 READ UNFORMATTED ON UNIT 10
                    --------------------------------------------------------------------------------------------

                    "WEL             " FLOW TERMS FOR TIME STEP  9, STRESS PERIOD  2 READ UNFORMATTED ON UNIT 10
                    --------------------------------------------------------------------------------------------

                    "GHB             " FLOW TERMS FOR TIME STEP  9, STRESS PERIOD  2 READ UNFORMATTED ON UNIT 10
                    --------------------------------------------------------------------------------------------


 TOTAL NUMBER OF POINT SOURCES/SINKS PRESENT IN THE FLOW MODEL =    41

 MAXIMUM STEPSIZE WHICH MEETS STABILITY CRITERION OF THE SINK & SOURCE TERM
 =  180.0    (WHEN MIN. R.F.=1)  AT K=   1, I=   5, J=   5

 MAXIMUM STEPSIZE WHICH MEETS STABILITY CRITERION OF THE DISPERSION TERM
 =  533.5    (WHEN MIN. R.F.=1)  AT K=   1, I=   5, J=   5


     1 CALLS TO GCG PACKAGE FOR TRANSPORT TIME STEP   1 IN FLOW TIME STEP   9 STRESS PERIOD   2
     2 TOTAL ITERATIONS
  MAXIMUM CONCENTRATION CHANGES FOR EACH ITERATION:
  MAX. CHANGE LAYER,ROW,COL MAX. CHANGE LAYER,ROW,COL MAX. CHANGE LAYER,ROW,COL MAX. CHANGE LAYER,ROW,COL MAX. CHANGE LAYER,ROW,COL
 ------------------------------------------------------------------------------------------------------------------------------------
   0.1213     (  1,  5,  5)  0.1946E-09 (  1,  4,  6)


                                          ================================================
                                                         TIME STEP NO.  010
                                          ================================================

 FROM TIME =   10.000     TO    11.000    


                    "THKSAT          " FLOW TERMS FOR TIME STEP 10, STRESS PERIOD  2 READ UNFORMATTED ON UNIT 10
                    --------------------------------------------------------------------------------------------

                    "QXX             " FLOW TERMS FOR TIME STEP 10, STRESS PERIOD  2 READ UNFORMATTED ON UNIT 10
                    --------------------------------------------------------------------------------------------

                    "QYY             " FLOW TERMS FOR TIME STEP 10, STRESS PERIOD  2 READ UNFORMATTED ON UNIT 10
                    --------------------------------------------------------------------------------------------

                    "QZZ             " FLOW TERMS FOR TIME STEP 10, STRESS PERIOD  2 READ UNFORMATTED ON UNIT 10
                    --------------------------------------------------------------------------------------------

                    "STO             " FLOW TERMS FOR TIME STEP 10, STRESS PERIOD  2 READ UNFORMATTED ON UNIT 10
                    --------------------------------------------------------------------------------------------

 MAXIMUM STEPSIZE DURING WHICH ANY PARTICLE CANNOT MOVE MORE THAN ONE CELL
 =  652.3    (WHEN MIN. R.F.=1)  AT K=   2, I=   5, J=   9

 MAXIMUM STEPSIZE WHICH MEETS STABILITY CRITERION OF THE ADVECTION TERM
 (FOR PURE FINITE-DIFFERENCE OPTION, MIXELM=0) 
 =  277.6    (WHEN MIN. R.F.=1)  AT K=   2, I=   5, J=   5

                    "CNH             " FLOW TERMS FOR TIME STEP 10, STRESS PERIOD  2 READ UNFORMATTED ON UNIT 10
                    --------------------------------------------------------------------------------------------

                    "WEL             " FLOW TERMS FOR TIME STEP 10, STRESS PERIOD  2 READ UNFORMATTED ON UNIT 10
                    --------------------------------------------------------------------------------------------

                    "GHB             " FLOW TERMS FOR TIME STEP 10, STRESS PERIOD  2 READ UNFORMATTED ON UNIT 10
                    --------------------------------------------------------------------------------------------


 TOTAL NUMBER OF POINT SOURCES/SINKS PRESENT IN THE FLOW MODEL =    41

 MAXIMUM STEPSIZE WHICH MEETS STABILITY CRITERION OF THE SINK & SOURCE TERM
 =  180.0    (WHEN MIN. R.F.=1)  AT K=   1, I=   5, J=   5

 MAXIMUM STEPSIZE WHICH MEETS STABILITY CRITERION OF THE DISPERSION TERM
 =  533.2    (WHEN MIN. R.F.=1)  AT K=   1, I=   5, J=   5


     1 CALLS TO GCG PACKAGE FOR TRANSPORT TIME STEP   1 IN FLOW TIME STEP  10 STRESS PERIOD   2
     2 TOTAL ITERATIONS
  MAXIMUM CONCENTRATION CHANGES FOR EACH ITERATION:
  MAX. CHANGE LAYER,ROW,COL MAX. CHANGE LAYER,ROW,COL MAX. CHANGE LAYER,ROW,COL MAX. CHANGE LAYER,ROW,COL MAX. CHANGE LAYER,ROW,COL
 ------------------------------------------------------------------------------------------------------------------------------------
   0.1074     (  1,  5,  5)  0.1783E-09 (  1,  4,  6)


                                          ================================================
                                                         TIME STEP NO.  011
                                          ================================================

 FROM TIME =   11.000     TO    12.000    


                    "THKSAT          " FLOW TERMS FOR TIME STEP 11, STRESS PERIOD  2 READ UNFORMATTED ON UNIT 10
                    --------------------------------------------------------------------------------------------

                    "QXX             " FLOW TERMS FOR TIME STEP 11, STRESS PERIOD  2 READ UNFORMATTED ON UNIT 10
                    --------------------------------------------------------------------------------------------

                    "QYY             " FLOW TERMS FOR TIME STEP 11, STRESS PERIOD  2 READ UNFORMATTED ON UNIT 10
                    --------------------------------------------------------------------------------------------

                    "QZZ             " FLOW TERMS FOR TIME STEP 11, STRESS PERIOD  2 READ UNFORMATTED ON UNIT 10
                    --------------------------------------------------------------------------------------------

                    "STO             " FLOW TERMS FOR TIME STEP 11, STRESS PERIOD  2 READ UNFORMATTED ON UNIT 10
                    --------------------------------------------------------------------------------------------

 MAXIMUM STEPSIZE DURING WHICH ANY PARTICLE CANNOT MOVE MORE THAN ONE CELL
 =  658.9    (WHEN MIN. R.F.=1)  AT K=   2, I=   5, J=   9

 MAXIMUM STEPSIZE WHICH MEETS STABILITY CRITERION OF THE ADVECTION TERM
 (FOR PURE FINITE-DIFFERENCE OPTION, MIXELM=0) 
 =  277.1    (WHEN MIN. R.F.=1)  AT K=   2, I=   5, J=   5

                    "CNH             " FLOW TERMS FOR TIME STEP 11, STRESS PERIOD  2 READ UNFORMATTED ON UNIT 10
                    --------------------------------------------------------------------------------------------

                    "WEL             " FLOW TERMS FOR TIME STEP 11, STRESS PERIOD  2 READ UNFORMATTED ON UNIT 10
                    --------------------------------------------------------------------------------------------

                    "GHB             " FLOW TERMS FOR TIME STEP 11, STRESS PERIOD  2 READ UNFORMATTED ON UNIT 10
                    --------------------------------------------------------------------------------------------


 TOTAL NUMBER OF POINT SOURCES/SINKS PRESENT IN THE FLOW MODEL =    41

 MAXIMUM STEPSIZE WHICH MEETS STABILITY CRITERION OF THE SINK & SOURCE TERM
 =  180.0    (WHEN MIN. R.F.=1)  AT K=   1, I=   5, J=   5

 MAXIMUM STEPSIZE WHICH MEETS STABILITY CRITERION OF THE DISPERSION TERM
 =  533.1    (WHEN MIN. R.F.=1)  AT K=   1, I=   5, J=   5


     1 CALLS TO GCG PACKAGE FOR TRANSPORT TIME STEP   1 IN FLOW TIME STEP  11 STRESS PERIOD   2
     2 TOTAL ITERATIONS
  MAXIMUM CONCENTRATION CHANGES FOR EACH ITERATION:
  MAX. CHANGE LAYER,ROW,COL MAX. CHANGE LAYER,ROW,COL MAX. CHANGE LAYER,ROW,COL MAX. CHANGE LAYER,ROW,COL MAX. CHANGE LAYER,ROW,COL
 ------------------------------------------------------------------------------------------------------------------------------------
   0.9635E-01 (  1,  5,  5)  0.1637E-09 (  1,  4,  6)


                                          ================================================
                                                         TIME STEP NO.  012
                                          ================================================

 FROM TIME =   12.000     TO    13.000    


                    "THKSAT          " FLOW TERMS FOR TIME STEP 12, STRESS PERIOD  2 READ UNFORMATTED ON UNIT 10
                    --------------------------------------------------------------------------------------------

                    "QXX             " FLOW TERMS FOR TIME STEP 12, STRESS PERIOD  2 READ UNFORMATTED ON UNIT 10
                    --------------------------------------------------------------------------------------------

                    "QYY             " FLOW TERMS FOR TIME STEP 12, STRESS PERIOD  2 READ UNFORMATTED ON UNIT 10
                    --------------------------------------------------------------------------------------------

                    "QZZ             " FLOW TERMS FOR TIME STEP 12, STRESS PERIOD  2 READ UNFORMATTED ON UNIT 10
                    --------------------------------------------------------------------------------------------

                    "STO             " FLOW TERMS FOR TIME STEP 12, STRESS PERIOD  2 READ UNFORMATTED ON UNIT 10
                    --------------------------------------------------------------------------------------------

 MAXIMUM STEPSIZE DURING WHICH ANY PARTICLE CANNOT MOVE MORE THAN ONE CELL
 =  665.7    (WHEN MIN. R.F.=1)  AT K=   2, I=   5, J=   9

 MAXIMUM STEPSIZE WHICH MEETS STABILITY CRITERION OF THE ADVECTION TERM
 (FOR PURE FINITE-DIFFERENCE OPTION, MIXELM=0) 
 =  276.6    (WHEN MIN. R.F.=1)  AT K=   2, I=   5, J=   5

                    "CNH             " FLOW TERMS FOR TIME STEP 12, STRESS PERIOD  2 READ UNFORMATTED ON UNIT 10
                    --------------------------------------------------------------------------------------------

                    "WEL             " FLOW TERMS FOR TIME STEP 12, STRESS PERIOD  2 READ UNFORMATTED ON UNIT 10
                    --------------------------------------------------------------------------------------------

                    "GHB             " FLOW TERMS FOR TIME STEP 12, STRESS PERIOD  2 READ UNFORMATTED ON UNIT 10
                    --------------------------------------------------------------------------------------------


 TOTAL NUMBER OF POINT SOURCES/SINKS PRESENT IN THE FLOW MODEL =    41

 MAXIMUM STEPSIZE WHICH MEETS STABILITY CRITERION OF THE SINK & SOURCE TERM
 =  180.0    (WHEN MIN. R.F.=1)  AT K=   1, I=   5, J=   5

 MAXIMUM STEPSIZE WHICH MEETS STABILITY CRITERION OF THE DISPERSION TERM
 =  532.9    (WHEN MIN. R.F.=1)  AT K=   1, I=   5, J=   5


     1 CALLS TO GCG PACKAGE FOR TRANSPORT TIME STEP   1 IN FLOW TIME STEP  12 STRESS PERIOD   2
     2 TOTAL ITERATIONS
  MAXIMUM CONCENTRATION CHANGES FOR EACH ITERATION:
  MAX. CHANGE LAYER,ROW,COL MAX. CHANGE LAYER,ROW,COL MAX. CHANGE LAYER,ROW,COL MAX. CHANGE LAYER,ROW,COL MAX. CHANGE LAYER,ROW,COL
 ------------------------------------------------------------------------------------------------------------------------------------
   0.8730E-01 (  1,  5,  5)  0.1492E-09 (  1,  4,  6)


                                          ================================================
                                                         TIME STEP NO.  013
                                          ================================================

 FROM TIME =   13.000     TO    14.000    


                    "THKSAT          " FLOW TERMS FOR TIME STEP 13, STRESS PERIOD  2 READ UNFORMATTED ON UNIT 10
                    --------------------------------------------------------------------------------------------

                    "QXX             " FLOW TERMS FOR TIME STEP 13, STRESS PERIOD  2 READ UNFORMATTED ON UNIT 10
                    --------------------------------------------------------------------------------------------

                    "QYY             " FLOW TERMS FOR TIME STEP 13, STRESS PERIOD  2 READ UNFORMATTED ON UNIT 10
                    --------------------------------------------------------------------------------------------

                    "QZZ             " FLOW TERMS FOR TIME STEP 13, STRESS PERIOD  2 READ UNFORMATTED ON UNIT 10
                    --------------------------------------------------------------------------------------------

                    "STO             " FLOW TERMS FOR TIME STEP 13, STRESS PERIOD  2 READ UNFORMATTED ON UNIT 10
                    --------------------------------------------------------------------------------------------

 MAXIMUM STEPSIZE DURING WHICH ANY PARTICLE CANNOT MOVE MORE THAN ONE CELL
 =  672.7    (WHEN MIN. R.F.=1)  AT K=   2, I=   5, J=   9

 MAXIMUM STEPSIZE WHICH MEETS STABILITY CRITERION OF THE ADVECTION TERM
 (FOR PURE FINITE-DIFFERENCE OPTION, MIXELM=0) 
 =  276.2    (WHEN MIN. R.F.=1)  AT K=   2, I=   5, J=   5

                    "CNH             " FLOW TERMS FOR TIME STEP 13, STRESS PERIOD  2 READ UNFORMATTED ON UNIT 10
                    --------------------------------------------------------------------------------------------

                    "WEL             " FLOW TERMS FOR TIME STEP 13, STRESS PERIOD  2 READ UNFORMATTED ON UNIT 10
                    --------------------------------------------------------------------------------------------

                    "GHB             " FLOW TERMS FOR TIME STEP 13, STRESS PERIOD  2 READ UNFORMATTED ON UNIT 10
                    --------------------------------------------------------------------------------------------


 TOTAL NUMBER OF POINT SOURCES/SINKS PRESENT IN THE FLOW MODEL =    41

 MAXIMUM STEPSIZE WHICH MEETS STABILITY CRITERION OF THE SINK & SOURCE TERM
 =  180.0    (WHEN MIN. R.F.=1)  AT K=   1, I=   5, J=   5

 MAXIMUM STEPSIZE WHICH MEETS STABILITY CRITERION OF THE DISPERSION TERM
 =  532.9    (WHEN MIN. R.F.=1)  AT K=   1, I=   5, J=   5


     1 CALLS TO GCG PACKAGE FOR TRANSPORT TIME STEP   1 IN FLOW TIME STEP  13 STRESS PERIOD   2
     2 TOTAL ITERATIONS
  MAXIMUM CONCENTRATION CHANGES FOR EACH ITERATION:
  MAX. CHANGE LAYER,ROW,COL MAX. CHANGE LAYER,ROW,COL MAX. CHANGE LAYER,ROW,COL MAX. CHANGE LAYER,ROW,COL MAX. CHANGE LAYER,ROW,COL
 ------------------------------------------------------------------------------------------------------------------------------------
   0.7975E-01 (  1,  5,  5)  0.1382E-09 (  1,  4,  6)


                                          ================================================
                                                         TIME STEP NO.  014
                                          ================================================

 FROM TIME =   14.000     TO    15.000    


                    "THKSAT          " FLOW TERMS FOR TIME STEP 14, STRESS PERIOD  2 READ UNFORMATTED ON UNIT 10
                    --------------------------------------------------------------------------------------------

                    "QXX             " FLOW TERMS FOR TIME STEP 14, STRESS PERIOD  2 READ UNFORMATTED ON UNIT 10
                    --------------------------------------------------------------------------------------------

                    "QYY             " FLOW TERMS FOR TIME STEP 14, STRESS PERIOD  2 READ UNFORMATTED ON UNIT 10
                    --------------------------------------------------------------------------------------------

                    "QZZ             " FLOW TERMS FOR TIME STEP 14, STRESS PERIOD  2 READ UNFORMATTED ON UNIT 10
                    --------------------------------------------------------------------------------------------

                    "STO             " FLOW TERMS FOR TIME STEP 14, STRESS PERIOD  2 READ UNFORMATTED ON UNIT 10
                    --------------------------------------------------------------------------------------------

 MAXIMUM STEPSIZE DURING WHICH ANY PARTICLE CANNOT MOVE MORE THAN ONE CELL
 =  679.7    (WHEN MIN. R.F.=1)  AT K=   2, I=   5, J=   9

 MAXIMUM STEPSIZE WHICH MEETS STABILITY CRITERION OF THE ADVECTION TERM
 (FOR PURE FINITE-DIFFERENCE OPTION, MIXELM=0) 
 =  275.9    (WHEN MIN. R.F.=1)  AT K=   2, I=   5, J=   5

                    "CNH             " FLOW TERMS FOR TIME STEP 14, STRESS PERIOD  2 READ UNFORMATTED ON UNIT 10
                    --------------------------------------------------------------------------------------------

                    "WEL             " FLOW TERMS FOR TIME STEP 14, STRESS PERIOD  2 READ UNFORMATTED ON UNIT 10
                    --------------------------------------------------------------------------------------------

                    "GHB             " FLOW TERMS FOR TIME STEP 14, STRESS PERIOD  2 READ UNFORMATTED ON UNIT 10
                    --------------------------------------------------------------------------------------------


 TOTAL NUMBER OF POINT SOURCES/SINKS PRESENT IN THE FLOW MODEL =    41

 MAXIMUM STEPSIZE WHICH MEETS STABILITY CRITERION OF THE SINK & SOURCE TERM
 =  180.0    (WHEN MIN. R.F.=1)  AT K=   1, I=   5, J=   5

 MAXIMUM STEPSIZE WHICH MEETS STABILITY CRITERION OF THE DISPERSION TERM
 =  532.8    (WHEN MIN. R.F.=1)  AT K=   1, I=   5, J=   5


     1 CALLS TO GCG PACKAGE FOR TRANSPORT TIME STEP   1 IN FLOW TIME STEP  14 STRESS PERIOD   2
     2 TOTAL ITERATIONS
  MAXIMUM CONCENTRATION CHANGES FOR EACH ITERATION:
  MAX. CHANGE LAYER,ROW,COL MAX. CHANGE LAYER,ROW,COL MAX. CHANGE LAYER,ROW,COL MAX. CHANGE LAYER,ROW,COL MAX. CHANGE LAYER,ROW,COL
 ------------------------------------------------------------------------------------------------------------------------------------
   0.7337E-01 (  1,  5,  5)  0.1310E-09 (  1,  4,  6)


                                          ================================================
                                                         TIME STEP NO.  015
                                          ================================================

 FROM TIME =   15.000     TO    16.000    


                    "THKSAT          " FLOW TERMS FOR TIME STEP 15, STRESS PERIOD  2 READ UNFORMATTED ON UNIT 10
                    --------------------------------------------------------------------------------------------

                    "QXX             " FLOW TERMS FOR TIME STEP 15, STRESS PERIOD  2 READ UNFORMATTED ON UNIT 10
                    --------------------------------------------------------------------------------------------

                    "QYY             " FLOW TERMS FOR TIME STEP 15, STRESS PERIOD  2 READ UNFORMATTED ON UNIT 10
                    --------------------------------------------------------------------------------------------

                    "QZZ             " FLOW TERMS FOR TIME STEP 15, STRESS PERIOD  2 READ UNFORMATTED ON UNIT 10
                    --------------------------------------------------------------------------------------------

                    "STO             " FLOW TERMS FOR TIME STEP 15, STRESS PERIOD  2 READ UNFORMATTED ON UNIT 10
                    --------------------------------------------------------------------------------------------

 MAXIMUM STEPSIZE DURING WHICH ANY PARTICLE CANNOT MOVE MORE THAN ONE CELL
 =  686.7    (WHEN MIN. R.F.=1)  AT K=   2, I=   5, J=   9

 MAXIMUM STEPSIZE WHICH MEETS STABILITY CRITERION OF THE ADVECTION TERM
 (FOR PURE FINITE-DIFFERENCE OPTION, MIXELM=0) 
 =  275.7    (WHEN MIN. R.F.=1)  AT K=   2, I=   5, J=   5

                    "CNH             " FLOW TERMS FOR TIME STEP 15, STRESS PERIOD  2 READ UNFORMATTED ON UNIT 10
                    --------------------------------------------------------------------------------------------

                    "WEL             " FLOW TERMS FOR TIME STEP 15, STRESS PERIOD  2 READ UNFORMATTED ON UNIT 10
                    --------------------------------------------------------------------------------------------

                    "GHB             " FLOW TERMS FOR TIME STEP 15, STRESS PERIOD  2 READ UNFORMATTED ON UNIT 10
                    --------------------------------------------------------------------------------------------


 TOTAL NUMBER OF POINT SOURCES/SINKS PRESENT IN THE FLOW MODEL =    41

 MAXIMUM STEPSIZE WHICH MEETS STABILITY CRITERION OF THE SINK & SOURCE TERM
 =  180.0    (WHEN MIN. R.F.=1)  AT K=   1, I=   5, J=   5

 MAXIMUM STEPSIZE WHICH MEETS STABILITY CRITERION OF THE DISPERSION TERM
 =  532.8    (WHEN MIN. R.F.=1)  AT K=   1, I=   5, J=   5


     1 CALLS TO GCG PACKAGE FOR TRANSPORT TIME STEP   1 IN FLOW TIME STEP  15 STRESS PERIOD   2
     2 TOTAL ITERATIONS
  MAXIMUM CONCENTRATION CHANGES FOR EACH ITERATION:
  MAX. CHANGE LAYER,ROW,COL MAX. CHANGE LAYER,ROW,COL MAX. CHANGE LAYER,ROW,COL MAX. CHANGE LAYER,ROW,COL MAX. CHANGE LAYER,ROW,COL
 ------------------------------------------------------------------------------------------------------------------------------------
   0.6790E-01 (  1,  5,  5)  0.1201E-09 (  1,  4,  6)


                                          ================================================
                                                         TIME STEP NO.  016
                                          ================================================

 FROM TIME =   16.000     TO    17.000    


                    "THKSAT          " FLOW TERMS FOR TIME STEP 16, STRESS PERIOD  2 READ UNFORMATTED ON UNIT 10
                    --------------------------------------------------------------------------------------------

                    "QXX             " FLOW TERMS FOR TIME STEP 16, STRESS PERIOD  2 READ UNFORMATTED ON UNIT 10
                    --------------------------------------------------------------------------------------------

                    "QYY             " FLOW TERMS FOR TIME STEP 16, STRESS PERIOD  2 READ UNFORMATTED ON UNIT 10
                    --------------------------------------------------------------------------------------------

                    "QZZ             " FLOW TERMS FOR TIME STEP 16, STRESS PERIOD  2 READ UNFORMATTED ON UNIT 10
                    --------------------------------------------------------------------------------------------

                    "STO             " FLOW TERMS FOR TIME STEP 16, STRESS PERIOD  2 READ UNFORMATTED ON UNIT 10
                    --------------------------------------------------------------------------------------------

 MAXIMUM STEPSIZE DURING WHICH ANY PARTICLE CANNOT MOVE MORE THAN ONE CELL
 =  693.7    (WHEN MIN. R.F.=1)  AT K=   2, I=   5, J=   9

 MAXIMUM STEPSIZE WHICH MEETS STABILITY CRITERION OF THE ADVECTION TERM
 (FOR PURE FINITE-DIFFERENCE OPTION, MIXELM=0) 
 =  275.5    (WHEN MIN. R.F.=1)  AT K=   2, I=   5, J=   5

                    "CNH             " FLOW TERMS FOR TIME STEP 16, STRESS PERIOD  2 READ UNFORMATTED ON UNIT 10
                    --------------------------------------------------------------------------------------------

                    "WEL             " FLOW TERMS FOR TIME STEP 16, STRESS PERIOD  2 READ UNFORMATTED ON UNIT 10
                    --------------------------------------------------------------------------------------------

                    "GHB             " FLOW TERMS FOR TIME STEP 16, STRESS PERIOD  2 READ UNFORMATTED ON UNIT 10
                    --------------------------------------------------------------------------------------------


 TOTAL NUMBER OF POINT SOURCES/SINKS PRESENT IN THE FLOW MODEL =    41

 MAXIMUM STEPSIZE WHICH MEETS STABILITY CRITERION OF THE SINK & SOURCE TERM
 =  180.0    (WHEN MIN. R.F.=1)  AT K=   1, I=   5, J=   5

 MAXIMUM STEPSIZE WHICH MEETS STABILITY CRITERION OF THE DISPERSION TERM
 =  532.8    (WHEN MIN. R.F.=1)  AT K=   1, I=   5, J=   5


     1 CALLS TO GCG PACKAGE FOR TRANSPORT TIME STEP   1 IN FLOW TIME STEP  16 STRESS PERIOD   2
     2 TOTAL ITERATIONS
  MAXIMUM CONCENTRATION CHANGES FOR EACH ITERATION:
  MAX. CHANGE LAYER,ROW,COL MAX. CHANGE LAYER,ROW,COL MAX. CHANGE LAYER,ROW,COL MAX. CHANGE LAYER,ROW,COL MAX. CHANGE LAYER,ROW,COL
 ------------------------------------------------------------------------------------------------------------------------------------
   0.6315E-01 (  1,  5,  5)  0.1128E-09 (  1,  4,  6)


                                          ================================================
                                                         TIME STEP NO.  017
                                          ================================================

 FROM TIME =   17.000     TO    18.000    


                    "THKSAT          " FLOW TERMS FOR TIME STEP 17, STRESS PERIOD  2 READ UNFORMATTED ON UNIT 10
                    --------------------------------------------------------------------------------------------

                    "QXX             " FLOW TERMS FOR TIME STEP 17, STRESS PERIOD  2 READ UNFORMATTED ON UNIT 10
                    --------------------------------------------------------------------------------------------

                    "QYY             " FLOW TERMS FOR TIME STEP 17, STRESS PERIOD  2 READ UNFORMATTED ON UNIT 10
                    --------------------------------------------------------------------------------------------

                    "QZZ             " FLOW TERMS FOR TIME STEP 17, STRESS PERIOD  2 READ UNFORMATTED ON UNIT 10
                    --------------------------------------------------------------------------------------------

                    "STO             " FLOW TERMS FOR TIME STEP 17, STRESS PERIOD  2 READ UNFORMATTED ON UNIT 10
                    --------------------------------------------------------------------------------------------

 MAXIMUM STEPSIZE DURING WHICH ANY PARTICLE CANNOT MOVE MORE THAN ONE CELL
 =  700.7    (WHEN MIN. R.F.=1)  AT K=   2, I=   5, J=   9

 MAXIMUM STEPSIZE WHICH MEETS STABILITY CRITERION OF THE ADVECTION TERM
 (FOR PURE FINITE-DIFFERENCE OPTION, MIXELM=0) 
 =  275.3    (WHEN MIN. R.F.=1)  AT K=   2, I=   5, J=   5

                    "CNH             " FLOW TERMS FOR TIME STEP 17, STRESS PERIOD  2 READ UNFORMATTED ON UNIT 10
                    --------------------------------------------------------------------------------------------

                    "WEL             " FLOW TERMS FOR TIME STEP 17, STRESS PERIOD  2 READ UNFORMATTED ON UNIT 10
                    --------------------------------------------------------------------------------------------

                    "GHB             " FLOW TERMS FOR TIME STEP 17, STRESS PERIOD  2 READ UNFORMATTED ON UNIT 10
                    --------------------------------------------------------------------------------------------


 TOTAL NUMBER OF POINT SOURCES/SINKS PRESENT IN THE FLOW MODEL =    41

 MAXIMUM STEPSIZE WHICH MEETS STABILITY CRITERION OF THE SINK & SOURCE TERM
 =  180.0    (WHEN MIN. R.F.=1)  AT K=   1, I=   5, J=   5

 MAXIMUM STEPSIZE WHICH MEETS STABILITY CRITERION OF THE DISPERSION TERM
 =  532.8    (WHEN MIN. R.F.=1)  AT K=   1, I=   5, J=   5


     1 CALLS TO GCG PACKAGE FOR TRANSPORT TIME STEP   1 IN FLOW TIME STEP  17 STRESS PERIOD   2
     2 TOTAL ITERATIONS
  MAXIMUM CONCENTRATION CHANGES FOR EACH ITERATION:
  MAX. CHANGE LAYER,ROW,COL MAX. CHANGE LAYER,ROW,COL MAX. CHANGE LAYER,ROW,COL MAX. CHANGE LAYER,ROW,COL MAX. CHANGE LAYER,ROW,COL
 ------------------------------------------------------------------------------------------------------------------------------------
   0.5901E-01 (  1,  5,  5)  0.1055E-09 (  1,  4,  6)


                                          ================================================
                                                         TIME STEP NO.  018
                                          ================================================

 FROM TIME =   18.000     TO    19.000    


                    "THKSAT          " FLOW TERMS FOR TIME STEP 18, STRESS PERIOD  2 READ UNFORMATTED ON UNIT 10
                    --------------------------------------------------------------------------------------------

                    "QXX             " FLOW TERMS FOR TIME STEP 18, STRESS PERIOD  2 READ UNFORMATTED ON UNIT 10
                    --------------------------------------------------------------------------------------------

                    "QYY             " FLOW TERMS FOR TIME STEP 18, STRESS PERIOD  2 READ UNFORMATTED ON UNIT 10
                    --------------------------------------------------------------------------------------------

                    "QZZ             " FLOW TERMS FOR TIME STEP 18, STRESS PERIOD  2 READ UNFORMATTED ON UNIT 10
                    --------------------------------------------------------------------------------------------

                    "STO             " FLOW TERMS FOR TIME STEP 18, STRESS PERIOD  2 READ UNFORMATTED ON UNIT 10
                    --------------------------------------------------------------------------------------------

 MAXIMUM STEPSIZE DURING WHICH ANY PARTICLE CANNOT MOVE MORE THAN ONE CELL
 =  707.5    (WHEN MIN. R.F.=1)  AT K=   2, I=   5, J=   9

 MAXIMUM STEPSIZE WHICH MEETS STABILITY CRITERION OF THE ADVECTION TERM
 (FOR PURE FINITE-DIFFERENCE OPTION, MIXELM=0) 
 =  275.2    (WHEN MIN. R.F.=1)  AT K=   2, I=   5, J=   5

                    "CNH             " FLOW TERMS FOR TIME STEP 18, STRESS PERIOD  2 READ UNFORMATTED ON UNIT 10
                    --------------------------------------------------------------------------------------------

                    "WEL             " FLOW TERMS FOR TIME STEP 18, STRESS PERIOD  2 READ UNFORMATTED ON UNIT 10
                    --------------------------------------------------------------------------------------------

                    "GHB             " FLOW TERMS FOR TIME STEP 18, STRESS PERIOD  2 READ UNFORMATTED ON UNIT 10
                    --------------------------------------------------------------------------------------------


 TOTAL NUMBER OF POINT SOURCES/SINKS PRESENT IN THE FLOW MODEL =    41

 MAXIMUM STEPSIZE WHICH MEETS STABILITY CRITERION OF THE SINK & SOURCE TERM
 =  180.0    (WHEN MIN. R.F.=1)  AT K=   1, I=   5, J=   5

 MAXIMUM STEPSIZE WHICH MEETS STABILITY CRITERION OF THE DISPERSION TERM
 =  532.8    (WHEN MIN. R.F.=1)  AT K=   1, I=   5, J=   5


     1 CALLS TO GCG PACKAGE FOR TRANSPORT TIME STEP   1 IN FLOW TIME STEP  18 STRESS PERIOD   2
     2 TOTAL ITERATIONS
  MAXIMUM CONCENTRATION CHANGES FOR EACH ITERATION:
  MAX. CHANGE LAYER,ROW,COL MAX. CHANGE LAYER,ROW,COL MAX. CHANGE LAYER,ROW,COL MAX. CHANGE LAYER,ROW,COL MAX. CHANGE LAYER,ROW,COL
 ------------------------------------------------------------------------------------------------------------------------------------
   0.5535E-01 (  1,  5,  5)  0.1019E-09 (  1,  4,  6)


                                          ================================================
                                                         TIME STEP NO.  019
                                          ================================================

 FROM TIME =   19.000     TO    20.000    


                    "THKSAT          " FLOW TERMS FOR TIME STEP 19, STRESS PERIOD  2 READ UNFORMATTED ON UNIT 10
                    --------------------------------------------------------------------------------------------

                    "QXX             " FLOW TERMS FOR TIME STEP 19, STRESS PERIOD  2 READ UNFORMATTED ON UNIT 10
                    --------------------------------------------------------------------------------------------

                    "QYY             " FLOW TERMS FOR TIME STEP 19, STRESS PERIOD  2 READ UNFORMATTED ON UNIT 10
                    --------------------------------------------------------------------------------------------

                    "QZZ             " FLOW TERMS FOR TIME STEP 19, STRESS PERIOD  2 READ UNFORMATTED ON UNIT 10
                    --------------------------------------------------------------------------------------------

                    "STO             " FLOW TERMS FOR TIME STEP 19, STRESS PERIOD  2 READ UNFORMATTED ON UNIT 10
                    --------------------------------------------------------------------------------------------

 MAXIMUM STEPSIZE DURING WHICH ANY PARTICLE CANNOT MOVE MORE THAN ONE CELL
 =  714.3    (WHEN MIN. R.F.=1)  AT K=   2, I=   5, J=   9

 MAXIMUM STEPSIZE WHICH MEETS STABILITY CRITERION OF THE ADVECTION TERM
 (FOR PURE FINITE-DIFFERENCE OPTION, MIXELM=0) 
 =  275.1    (WHEN MIN. R.F.=1)  AT K=   2, I=   5, J=   5

                    "CNH             " FLOW TERMS FOR TIME STEP 19, STRESS PERIOD  2 READ UNFORMATTED ON UNIT 10
                    --------------------------------------------------------------------------------------------

                    "WEL             " FLOW TERMS FOR TIME STEP 19, STRESS PERIOD  2 READ UNFORMATTED ON UNIT 10
                    --------------------------------------------------------------------------------------------

                    "GHB             " FLOW TERMS FOR TIME STEP 19, STRESS PERIOD  2 READ UNFORMATTED ON UNIT 10
                    --------------------------------------------------------------------------------------------


 TOTAL NUMBER OF POINT SOURCES/SINKS PRESENT IN THE FLOW MODEL =    41

 MAXIMUM STEPSIZE WHICH MEETS STABILITY CRITERION OF THE SINK & SOURCE TERM
 =  180.0    (WHEN MIN. R.F.=1)  AT K=   1, I=   5, J=   5

 MAXIMUM STEPSIZE WHICH MEETS STABILITY CRITERION OF THE DISPERSION TERM
 =  532.8    (WHEN MIN. R.F.=1)  AT K=   1, I=   5, J=   5


     1 CALLS TO GCG PACKAGE FOR TRANSPORT TIME STEP   1 IN FLOW TIME STEP  19 STRESS PERIOD   2
     2 TOTAL ITERATIONS
  MAXIMUM CONCENTRATION CHANGES FOR EACH ITERATION:
  MAX. CHANGE LAYER,ROW,COL MAX. CHANGE LAYER,ROW,COL MAX. CHANGE LAYER,ROW,COL MAX. CHANGE LAYER,ROW,COL MAX. CHANGE LAYER,ROW,COL
 ------------------------------------------------------------------------------------------------------------------------------------
   0.5209E-01 (  1,  5,  5)  0.9459E-10 (  1,  4,  6)


                                          ================================================
                                                         TIME STEP NO.  020
                                          ================================================

 FROM TIME =   20.000     TO    21.000    


                    "THKSAT          " FLOW TERMS FOR TIME STEP 20, STRESS PERIOD  2 READ UNFORMATTED ON UNIT 10
                    --------------------------------------------------------------------------------------------

                    "QXX             " FLOW TERMS FOR TIME STEP 20, STRESS PERIOD  2 READ UNFORMATTED ON UNIT 10
                    --------------------------------------------------------------------------------------------

                    "QYY             " FLOW TERMS FOR TIME STEP 20, STRESS PERIOD  2 READ UNFORMATTED ON UNIT 10
                    --------------------------------------------------------------------------------------------

                    "QZZ             " FLOW TERMS FOR TIME STEP 20, STRESS PERIOD  2 READ UNFORMATTED ON UNIT 10
                    --------------------------------------------------------------------------------------------

                    "STO             " FLOW TERMS FOR TIME STEP 20, STRESS PERIOD  2 READ UNFORMATTED ON UNIT 10
                    --------------------------------------------------------------------------------------------

 MAXIMUM STEPSIZE DURING WHICH ANY PARTICLE CANNOT MOVE MORE THAN ONE CELL
 =  721.1    (WHEN MIN. R.F.=1)  AT K=   2, I=   5, J=   9

 MAXIMUM STEPSIZE WHICH MEETS STABILITY CRITERION OF THE ADVECTION TERM
 (FOR PURE FINITE-DIFFERENCE OPTION, MIXELM=0) 
 =  275.0    (WHEN MIN. R.F.=1)  AT K=   2, I=   5, J=   5

                    "CNH             " FLOW TERMS FOR TIME STEP 20, STRESS PERIOD  2 READ UNFORMATTED ON UNIT 10
                    --------------------------------------------------------------------------------------------

                    "WEL             " FLOW TERMS FOR TIME STEP 20, STRESS PERIOD  2 READ UNFORMATTED ON UNIT 10
                    --------------------------------------------------------------------------------------------

                    "GHB             " FLOW TERMS FOR TIME STEP 20, STRESS PERIOD  2 READ UNFORMATTED ON UNIT 10
                    --------------------------------------------------------------------------------------------


 TOTAL NUMBER OF POINT SOURCES/SINKS PRESENT IN THE FLOW MODEL =    41

 MAXIMUM STEPSIZE WHICH MEETS STABILITY CRITERION OF THE SINK & SOURCE TERM
 =  180.0    (WHEN MIN. R.F.=1)  AT K=   1, I=   5, J=   5

 MAXIMUM STEPSIZE WHICH MEETS STABILITY CRITERION OF THE DISPERSION TERM
 =  532.8    (WHEN MIN. R.F.=1)  AT K=   1, I=   5, J=   5


     1 CALLS TO GCG PACKAGE FOR TRANSPORT TIME STEP   1 IN FLOW TIME STEP  20 STRESS PERIOD   2
     2 TOTAL ITERATIONS
  MAXIMUM CONCENTRATION CHANGES FOR EACH ITERATION:
  MAX. CHANGE LAYER,ROW,COL MAX. CHANGE LAYER,ROW,COL MAX. CHANGE LAYER,ROW,COL MAX. CHANGE LAYER,ROW,COL MAX. CHANGE LAYER,ROW,COL
 ------------------------------------------------------------------------------------------------------------------------------------
   0.4918E-01 (  1,  5,  5)  0.9459E-10 (  1,  4,  6)


                                          ================================================
                                                         TIME STEP NO.  021
                                          ================================================

 FROM TIME =   21.000     TO    22.000    


                    "THKSAT          " FLOW TERMS FOR TIME STEP 21, STRESS PERIOD  2 READ UNFORMATTED ON UNIT 10
                    --------------------------------------------------------------------------------------------

                    "QXX             " FLOW TERMS FOR TIME STEP 21, STRESS PERIOD  2 READ UNFORMATTED ON UNIT 10
                    --------------------------------------------------------------------------------------------

                    "QYY             " FLOW TERMS FOR TIME STEP 21, STRESS PERIOD  2 READ UNFORMATTED ON UNIT 10
                    --------------------------------------------------------------------------------------------

                    "QZZ             " FLOW TERMS FOR TIME STEP 21, STRESS PERIOD  2 READ UNFORMATTED ON UNIT 10
                    --------------------------------------------------------------------------------------------

                    "STO             " FLOW TERMS FOR TIME STEP 21, STRESS PERIOD  2 READ UNFORMATTED ON UNIT 10
                    --------------------------------------------------------------------------------------------

 MAXIMUM STEPSIZE DURING WHICH ANY PARTICLE CANNOT MOVE MORE THAN ONE CELL
 =  727.8    (WHEN MIN. R.F.=1)  AT K=   2, I=   5, J=   9

 MAXIMUM STEPSIZE WHICH MEETS STABILITY CRITERION OF THE ADVECTION TERM
 (FOR PURE FINITE-DIFFERENCE OPTION, MIXELM=0) 
 =  274.8    (WHEN MIN. R.F.=1)  AT K=   2, I=   5, J=   5

                    "CNH             " FLOW TERMS FOR TIME STEP 21, STRESS PERIOD  2 READ UNFORMATTED ON UNIT 10
                    --------------------------------------------------------------------------------------------

                    "WEL             " FLOW TERMS FOR TIME STEP 21, STRESS PERIOD  2 READ UNFORMATTED ON UNIT 10
                    --------------------------------------------------------------------------------------------

                    "GHB             " FLOW TERMS FOR TIME STEP 21, STRESS PERIOD  2 READ UNFORMATTED ON UNIT 10
                    --------------------------------------------------------------------------------------------


 TOTAL NUMBER OF POINT SOURCES/SINKS PRESENT IN THE FLOW MODEL =    41

 MAXIMUM STEPSIZE WHICH MEETS STABILITY CRITERION OF THE SINK & SOURCE TERM
 =  180.0    (WHEN MIN. R.F.=1)  AT K=   1, I=   5, J=   5

 MAXIMUM STEPSIZE WHICH MEETS STABILITY CRITERION OF THE DISPERSION TERM
 =  532.8    (WHEN MIN. R.F.=1)  AT K=   1, I=   5, J=   5


     1 CALLS TO GCG PACKAGE FOR TRANSPORT TIME STEP   1 IN FLOW TIME STEP  21 STRESS PERIOD   2
     2 TOTAL ITERATIONS
  MAXIMUM CONCENTRATION CHANGES FOR EACH ITERATION:
  MAX. CHANGE LAYER,ROW,COL MAX. CHANGE LAYER,ROW,COL MAX. CHANGE LAYER,ROW,COL MAX. CHANGE LAYER,ROW,COL MAX. CHANGE LAYER,ROW,COL
 ------------------------------------------------------------------------------------------------------------------------------------
   0.4656E-01 (  1,  5,  5)  0.8731E-10 (  1,  4,  6)


                                          ================================================
                                                         TIME STEP NO.  022
                                          ================================================

 FROM TIME =   22.000     TO    23.000    


                    "THKSAT          " FLOW TERMS FOR TIME STEP 22, STRESS PERIOD  2 READ UNFORMATTED ON UNIT 10
                    --------------------------------------------------------------------------------------------

                    "QXX             " FLOW TERMS FOR TIME STEP 22, STRESS PERIOD  2 READ UNFORMATTED ON UNIT 10
                    --------------------------------------------------------------------------------------------

                    "QYY             " FLOW TERMS FOR TIME STEP 22, STRESS PERIOD  2 READ UNFORMATTED ON UNIT 10
                    --------------------------------------------------------------------------------------------

                    "QZZ             " FLOW TERMS FOR TIME STEP 22, STRESS PERIOD  2 READ UNFORMATTED ON UNIT 10
                    --------------------------------------------------------------------------------------------

                    "STO             " FLOW TERMS FOR TIME STEP 22, STRESS PERIOD  2 READ UNFORMATTED ON UNIT 10
                    --------------------------------------------------------------------------------------------

 MAXIMUM STEPSIZE DURING WHICH ANY PARTICLE CANNOT MOVE MORE THAN ONE CELL
 =  734.5    (WHEN MIN. R.F.=1)  AT K=   2, I=   5, J=   9

 MAXIMUM STEPSIZE WHICH MEETS STABILITY CRITERION OF THE ADVECTION TERM
 (FOR PURE FINITE-DIFFERENCE OPTION, MIXELM=0) 
 =  274.7    (WHEN MIN. R.F.=1)  AT K=   2, I=   5, J=   5

                    "CNH             " FLOW TERMS FOR TIME STEP 22, STRESS PERIOD  2 READ UNFORMATTED ON UNIT 10
                    --------------------------------------------------------------------------------------------

                    "WEL             " FLOW TERMS FOR TIME STEP 22, STRESS PERIOD  2 READ UNFORMATTED ON UNIT 10
                    --------------------------------------------------------------------------------------------

                    "GHB             " FLOW TERMS FOR TIME STEP 22, STRESS PERIOD  2 READ UNFORMATTED ON UNIT 10
                    --------------------------------------------------------------------------------------------


 TOTAL NUMBER OF POINT SOURCES/SINKS PRESENT IN THE FLOW MODEL =    41

 MAXIMUM STEPSIZE WHICH MEETS STABILITY CRITERION OF THE SINK & SOURCE TERM
 =  180.0    (WHEN MIN. R.F.=1)  AT K=   1, I=   5, J=   5

 MAXIMUM STEPSIZE WHICH MEETS STABILITY CRITERION OF THE DISPERSION TERM
 =  532.8    (WHEN MIN. R.F.=1)  AT K=   1, I=   5, J=   5


     1 CALLS TO GCG PACKAGE FOR TRANSPORT TIME STEP   1 IN FLOW TIME STEP  22 STRESS PERIOD   2
     2 TOTAL ITERATIONS
  MAXIMUM CONCENTRATION CHANGES FOR EACH ITERATION:
  MAX. CHANGE LAYER,ROW,COL MAX. CHANGE LAYER,ROW,COL MAX. CHANGE LAYER,ROW,COL MAX. CHANGE LAYER,ROW,COL MAX. CHANGE LAYER,ROW,COL
 ------------------------------------------------------------------------------------------------------------------------------------
   0.4420E-01 (  1,  5,  5)  0.8004E-10 (  1,  4,  6)


                                          ================================================
                                                         TIME STEP NO.  023
                                          ================================================

 FROM TIME =   23.000     TO    24.000    


                    "THKSAT          " FLOW TERMS FOR TIME STEP 23, STRESS PERIOD  2 READ UNFORMATTED ON UNIT 10
                    --------------------------------------------------------------------------------------------

                    "QXX             " FLOW TERMS FOR TIME STEP 23, STRESS PERIOD  2 READ UNFORMATTED ON UNIT 10
                    --------------------------------------------------------------------------------------------

                    "QYY             " FLOW TERMS FOR TIME STEP 23, STRESS PERIOD  2 READ UNFORMATTED ON UNIT 10
                    --------------------------------------------------------------------------------------------

                    "QZZ             " FLOW TERMS FOR TIME STEP 23, STRESS PERIOD  2 READ UNFORMATTED ON UNIT 10
                    --------------------------------------------------------------------------------------------

                    "STO             " FLOW TERMS FOR TIME STEP 23, STRESS PERIOD  2 READ UNFORMATTED ON UNIT 10
                    --------------------------------------------------------------------------------------------

 MAXIMUM STEPSIZE DURING WHICH ANY PARTICLE CANNOT MOVE MORE THAN ONE CELL
 =  741.2    (WHEN MIN. R.F.=1)  AT K=   2, I=   5, J=   9

 MAXIMUM STEPSIZE WHICH MEETS STABILITY CRITERION OF THE ADVECTION TERM
 (FOR PURE FINITE-DIFFERENCE OPTION, MIXELM=0) 
 =  274.5    (WHEN MIN. R.F.=1)  AT K=   2, I=   5, J=   5

                    "CNH             " FLOW TERMS FOR TIME STEP 23, STRESS PERIOD  2 READ UNFORMATTED ON UNIT 10
                    --------------------------------------------------------------------------------------------

                    "WEL             " FLOW TERMS FOR TIME STEP 23, STRESS PERIOD  2 READ UNFORMATTED ON UNIT 10
                    --------------------------------------------------------------------------------------------

                    "GHB             " FLOW TERMS FOR TIME STEP 23, STRESS PERIOD  2 READ UNFORMATTED ON UNIT 10
                    --------------------------------------------------------------------------------------------


 TOTAL NUMBER OF POINT SOURCES/SINKS PRESENT IN THE FLOW MODEL =    41

 MAXIMUM STEPSIZE WHICH MEETS STABILITY CRITERION OF THE SINK & SOURCE TERM
 =  180.0    (WHEN MIN. R.F.=1)  AT K=   1, I=   5, J=   5

 MAXIMUM STEPSIZE WHICH MEETS STABILITY CRITERION OF THE DISPERSION TERM
 =  532.9    (WHEN MIN. R.F.=1)  AT K=   1, I=   5, J=   5


     1 CALLS TO GCG PACKAGE FOR TRANSPORT TIME STEP   1 IN FLOW TIME STEP  23 STRESS PERIOD   2
     2 TOTAL ITERATIONS
  MAXIMUM CONCENTRATION CHANGES FOR EACH ITERATION:
  MAX. CHANGE LAYER,ROW,COL MAX. CHANGE LAYER,ROW,COL MAX. CHANGE LAYER,ROW,COL MAX. CHANGE LAYER,ROW,COL MAX. CHANGE LAYER,ROW,COL
 ------------------------------------------------------------------------------------------------------------------------------------
   0.4204E-01 (  1,  5,  5)  0.8004E-10 (  1,  4,  6)


                                          ================================================
                                                         TIME STEP NO.  024
                                          ================================================

 FROM TIME =   24.000     TO    25.000    


                    "THKSAT          " FLOW TERMS FOR TIME STEP 24, STRESS PERIOD  2 READ UNFORMATTED ON UNIT 10
                    --------------------------------------------------------------------------------------------

                    "QXX             " FLOW TERMS FOR TIME STEP 24, STRESS PERIOD  2 READ UNFORMATTED ON UNIT 10
                    --------------------------------------------------------------------------------------------

                    "QYY             " FLOW TERMS FOR TIME STEP 24, STRESS PERIOD  2 READ UNFORMATTED ON UNIT 10
                    --------------------------------------------------------------------------------------------

                    "QZZ             " FLOW TERMS FOR TIME STEP 24, STRESS PERIOD  2 READ UNFORMATTED ON UNIT 10
                    --------------------------------------------------------------------------------------------

                    "STO             " FLOW TERMS FOR TIME STEP 24, STRESS PERIOD  2 READ UNFORMATTED ON UNIT 10
                    --------------------------------------------------------------------------------------------

 MAXIMUM STEPSIZE DURING WHICH ANY PARTICLE CANNOT MOVE MORE THAN ONE CELL
 =  747.8    (WHEN MIN. R.F.=1)  AT K=   2, I=   5, J=   9

 MAXIMUM STEPSIZE WHICH MEETS STABILITY CRITERION OF THE ADVECTION TERM
 (FOR PURE FINITE-DIFFERENCE OPTION, MIXELM=0) 
 =  274.3    (WHEN MIN. R.F.=1)  AT K=   2, I=   5, J=   5

                    "CNH             " FLOW TERMS FOR TIME STEP 24, STRESS PERIOD  2 READ UNFORMATTED ON UNIT 10
                    --------------------------------------------------------------------------------------------

                    "WEL             " FLOW TERMS FOR TIME STEP 24, STRESS PERIOD  2 READ UNFORMATTED ON UNIT 10
                    --------------------------------------------------------------------------------------------

                    "GHB             " FLOW TERMS FOR TIME STEP 24, STRESS PERIOD  2 READ UNFORMATTED ON UNIT 10
                    --------------------------------------------------------------------------------------------


 TOTAL NUMBER OF POINT SOURCES/SINKS PRESENT IN THE FLOW MODEL =    41

 MAXIMUM STEPSIZE WHICH MEETS STABILITY CRITERION OF THE SINK & SOURCE TERM
 =  180.0    (WHEN MIN. R.F.=1)  AT K=   1, I=   5, J=   5

 MAXIMUM STEPSIZE WHICH MEETS STABILITY CRITERION OF THE DISPERSION TERM
 =  532.9    (WHEN MIN. R.F.=1)  AT K=   1, I=   5, J=   5


     1 CALLS TO GCG PACKAGE FOR TRANSPORT TIME STEP   1 IN FLOW TIME STEP  24 STRESS PERIOD   2
     2 TOTAL ITERATIONS
  MAXIMUM CONCENTRATION CHANGES FOR EACH ITERATION:
  MAX. CHANGE LAYER,ROW,COL MAX. CHANGE LAYER,ROW,COL MAX. CHANGE LAYER,ROW,COL MAX. CHANGE LAYER,ROW,COL MAX. CHANGE LAYER,ROW,COL
 ------------------------------------------------------------------------------------------------------------------------------------
   0.4008E-01 (  1,  5,  5)  0.8004E-10 (  1,  4,  6)


                                          ================================================
                                                         TIME STEP NO.  025
                                          ================================================

 FROM TIME =   25.000     TO    26.000    


                    "THKSAT          " FLOW TERMS FOR TIME STEP 25, STRESS PERIOD  2 READ UNFORMATTED ON UNIT 10
                    --------------------------------------------------------------------------------------------

                    "QXX             " FLOW TERMS FOR TIME STEP 25, STRESS PERIOD  2 READ UNFORMATTED ON UNIT 10
                    --------------------------------------------------------------------------------------------

                    "QYY             " FLOW TERMS FOR TIME STEP 25, STRESS PERIOD  2 READ UNFORMATTED ON UNIT 10
                    --------------------------------------------------------------------------------------------

                    "QZZ             " FLOW TERMS FOR TIME STEP 25, STRESS PERIOD  2 READ UNFORMATTED ON UNIT 10
                    --------------------------------------------------------------------------------------------

                    "STO             " FLOW TERMS FOR TIME STEP 25, STRESS PERIOD  2 READ UNFORMATTED ON UNIT 10
                    --------------------------------------------------------------------------------------------

 MAXIMUM STEPSIZE DURING WHICH ANY PARTICLE CANNOT MOVE MORE THAN ONE CELL
 =  754.5    (WHEN MIN. R.F.=1)  AT K=   2, I=   5, J=   9

 MAXIMUM STEPSIZE WHICH MEETS STABILITY CRITERION OF THE ADVECTION TERM
 (FOR PURE FINITE-DIFFERENCE OPTION, MIXELM=0) 
 =  274.2    (WHEN MIN. R.F.=1)  AT K=   2, I=   5, J=   5

                    "CNH             " FLOW TERMS FOR TIME STEP 25, STRESS PERIOD  2 READ UNFORMATTED ON UNIT 10
                    --------------------------------------------------------------------------------------------

                    "WEL             " FLOW TERMS FOR TIME STEP 25, STRESS PERIOD  2 READ UNFORMATTED ON UNIT 10
                    --------------------------------------------------------------------------------------------

                    "GHB             " FLOW TERMS FOR TIME STEP 25, STRESS PERIOD  2 READ UNFORMATTED ON UNIT 10
                    --------------------------------------------------------------------------------------------


 TOTAL NUMBER OF POINT SOURCES/SINKS PRESENT IN THE FLOW MODEL =    41

 MAXIMUM STEPSIZE WHICH MEETS STABILITY CRITERION OF THE SINK & SOURCE TERM
 =  180.0    (WHEN MIN. R.F.=1)  AT K=   1, I=   5, J=   5

 MAXIMUM STEPSIZE WHICH MEETS STABILITY CRITERION OF THE DISPERSION TERM
 =  532.9    (WHEN MIN. R.F.=1)  AT K=   1, I=   5, J=   5


     1 CALLS TO GCG PACKAGE FOR TRANSPORT TIME STEP   1 IN FLOW TIME STEP  25 STRESS PERIOD   2
     2 TOTAL ITERATIONS
  MAXIMUM CONCENTRATION CHANGES FOR EACH ITERATION:
  MAX. CHANGE LAYER,ROW,COL MAX. CHANGE LAYER,ROW,COL MAX. CHANGE LAYER,ROW,COL MAX. CHANGE LAYER,ROW,COL MAX. CHANGE LAYER,ROW,COL
 ------------------------------------------------------------------------------------------------------------------------------------
   0.3828E-01 (  1,  5,  5)  0.7276E-10 (  1,  4,  6)


                                          ================================================
                                                         TIME STEP NO.  026
                                          ================================================

 FROM TIME =   26.000     TO    27.000    


                    "THKSAT          " FLOW TERMS FOR TIME STEP 26, STRESS PERIOD  2 READ UNFORMATTED ON UNIT 10
                    --------------------------------------------------------------------------------------------

                    "QXX             " FLOW TERMS FOR TIME STEP 26, STRESS PERIOD  2 READ UNFORMATTED ON UNIT 10
                    --------------------------------------------------------------------------------------------

                    "QYY             " FLOW TERMS FOR TIME STEP 26, STRESS PERIOD  2 READ UNFORMATTED ON UNIT 10
                    --------------------------------------------------------------------------------------------

                    "QZZ             " FLOW TERMS FOR TIME STEP 26, STRESS PERIOD  2 READ UNFORMATTED ON UNIT 10
                    --------------------------------------------------------------------------------------------

                    "STO             " FLOW TERMS FOR TIME STEP 26, STRESS PERIOD  2 READ UNFORMATTED ON UNIT 10
                    --------------------------------------------------------------------------------------------

 MAXIMUM STEPSIZE DURING WHICH ANY PARTICLE CANNOT MOVE MORE THAN ONE CELL
 =  761.1    (WHEN MIN. R.F.=1)  AT K=   2, I=   5, J=   9

 MAXIMUM STEPSIZE WHICH MEETS STABILITY CRITERION OF THE ADVECTION TERM
 (FOR PURE FINITE-DIFFERENCE OPTION, MIXELM=0) 
 =  274.0    (WHEN MIN. R.F.=1)  AT K=   2, I=   5, J=   5

                    "CNH             " FLOW TERMS FOR TIME STEP 26, STRESS PERIOD  2 READ UNFORMATTED ON UNIT 10
                    --------------------------------------------------------------------------------------------

                    "WEL             " FLOW TERMS FOR TIME STEP 26, STRESS PERIOD  2 READ UNFORMATTED ON UNIT 10
                    --------------------------------------------------------------------------------------------

                    "GHB             " FLOW TERMS FOR TIME STEP 26, STRESS PERIOD  2 READ UNFORMATTED ON UNIT 10
                    --------------------------------------------------------------------------------------------


 TOTAL NUMBER OF POINT SOURCES/SINKS PRESENT IN THE FLOW MODEL =    41

 MAXIMUM STEPSIZE WHICH MEETS STABILITY CRITERION OF THE SINK & SOURCE TERM
 =  180.0    (WHEN MIN. R.F.=1)  AT K=   1, I=   5, J=   5

 MAXIMUM STEPSIZE WHICH MEETS STABILITY CRITERION OF THE DISPERSION TERM
 =  533.0    (WHEN MIN. R.F.=1)  AT K=   1, I=   5, J=   5


     1 CALLS TO GCG PACKAGE FOR TRANSPORT TIME STEP   1 IN FLOW TIME STEP  26 STRESS PERIOD   2
     2 TOTAL ITERATIONS
  MAXIMUM CONCENTRATION CHANGES FOR EACH ITERATION:
  MAX. CHANGE LAYER,ROW,COL MAX. CHANGE LAYER,ROW,COL MAX. CHANGE LAYER,ROW,COL MAX. CHANGE LAYER,ROW,COL MAX. CHANGE LAYER,ROW,COL
 ------------------------------------------------------------------------------------------------------------------------------------
   0.3662E-01 (  1,  5,  5)  0.7276E-10 (  1,  4,  6)


                                          ================================================
                                                         TIME STEP NO.  027
                                          ================================================

 FROM TIME =   27.000     TO    28.000    


                    "THKSAT          " FLOW TERMS FOR TIME STEP 27, STRESS PERIOD  2 READ UNFORMATTED ON UNIT 10
                    --------------------------------------------------------------------------------------------

                    "QXX             " FLOW TERMS FOR TIME STEP 27, STRESS PERIOD  2 READ UNFORMATTED ON UNIT 10
                    --------------------------------------------------------------------------------------------

                    "QYY             " FLOW TERMS FOR TIME STEP 27, STRESS PERIOD  2 READ UNFORMATTED ON UNIT 10
                    --------------------------------------------------------------------------------------------

                    "QZZ             " FLOW TERMS FOR TIME STEP 27, STRESS PERIOD  2 READ UNFORMATTED ON UNIT 10
                    --------------------------------------------------------------------------------------------

                    "STO             " FLOW TERMS FOR TIME STEP 27, STRESS PERIOD  2 READ UNFORMATTED ON UNIT 10
                    --------------------------------------------------------------------------------------------

 MAXIMUM STEPSIZE DURING WHICH ANY PARTICLE CANNOT MOVE MORE THAN ONE CELL
 =  767.6    (WHEN MIN. R.F.=1)  AT K=   2, I=   5, J=   9

 MAXIMUM STEPSIZE WHICH MEETS STABILITY CRITERION OF THE ADVECTION TERM
 (FOR PURE FINITE-DIFFERENCE OPTION, MIXELM=0) 
 =  273.8    (WHEN MIN. R.F.=1)  AT K=   2, I=   5, J=   5

                    "CNH             " FLOW TERMS FOR TIME STEP 27, STRESS PERIOD  2 READ UNFORMATTED ON UNIT 10
                    --------------------------------------------------------------------------------------------

                    "WEL             " FLOW TERMS FOR TIME STEP 27, STRESS PERIOD  2 READ UNFORMATTED ON UNIT 10
                    --------------------------------------------------------------------------------------------

                    "GHB             " FLOW TERMS FOR TIME STEP 27, STRESS PERIOD  2 READ UNFORMATTED ON UNIT 10
                    --------------------------------------------------------------------------------------------


 TOTAL NUMBER OF POINT SOURCES/SINKS PRESENT IN THE FLOW MODEL =    41

 MAXIMUM STEPSIZE WHICH MEETS STABILITY CRITERION OF THE SINK & SOURCE TERM
 =  180.0    (WHEN MIN. R.F.=1)  AT K=   1, I=   5, J=   5

 MAXIMUM STEPSIZE WHICH MEETS STABILITY CRITERION OF THE DISPERSION TERM
 =  533.0    (WHEN MIN. R.F.=1)  AT K=   1, I=   5, J=   5


     1 CALLS TO GCG PACKAGE FOR TRANSPORT TIME STEP   1 IN FLOW TIME STEP  27 STRESS PERIOD   2
     2 TOTAL ITERATIONS
  MAXIMUM CONCENTRATION CHANGES FOR EACH ITERATION:
  MAX. CHANGE LAYER,ROW,COL MAX. CHANGE LAYER,ROW,COL MAX. CHANGE LAYER,ROW,COL MAX. CHANGE LAYER,ROW,COL MAX. CHANGE LAYER,ROW,COL
 ------------------------------------------------------------------------------------------------------------------------------------
   0.3509E-01 (  1,  5,  5)  0.6548E-10 (  1,  4,  6)


                                          ================================================
                                                         TIME STEP NO.  028
                                          ================================================

 FROM TIME =   28.000     TO    29.000    


                    "THKSAT          " FLOW TERMS FOR TIME STEP 28, STRESS PERIOD  2 READ UNFORMATTED ON UNIT 10
                    --------------------------------------------------------------------------------------------

                    "QXX             " FLOW TERMS FOR TIME STEP 28, STRESS PERIOD  2 READ UNFORMATTED ON UNIT 10
                    --------------------------------------------------------------------------------------------

                    "QYY             " FLOW TERMS FOR TIME STEP 28, STRESS PERIOD  2 READ UNFORMATTED ON UNIT 10
                    --------------------------------------------------------------------------------------------

                    "QZZ             " FLOW TERMS FOR TIME STEP 28, STRESS PERIOD  2 READ UNFORMATTED ON UNIT 10
                    --------------------------------------------------------------------------------------------

                    "STO             " FLOW TERMS FOR TIME STEP 28, STRESS PERIOD  2 READ UNFORMATTED ON UNIT 10
                    --------------------------------------------------------------------------------------------

 MAXIMUM STEPSIZE DURING WHICH ANY PARTICLE CANNOT MOVE MORE THAN ONE CELL
 =  774.2    (WHEN MIN. R.F.=1)  AT K=   2, I=   5, J=   9

 MAXIMUM STEPSIZE WHICH MEETS STABILITY CRITERION OF THE ADVECTION TERM
 (FOR PURE FINITE-DIFFERENCE OPTION, MIXELM=0) 
 =  273.6    (WHEN MIN. R.F.=1)  AT K=   2, I=   5, J=   5

                    "CNH             " FLOW TERMS FOR TIME STEP 28, STRESS PERIOD  2 READ UNFORMATTED ON UNIT 10
                    --------------------------------------------------------------------------------------------

                    "WEL             " FLOW TERMS FOR TIME STEP 28, STRESS PERIOD  2 READ UNFORMATTED ON UNIT 10
                    --------------------------------------------------------------------------------------------

                    "GHB             " FLOW TERMS FOR TIME STEP 28, STRESS PERIOD  2 READ UNFORMATTED ON UNIT 10
                    --------------------------------------------------------------------------------------------


 TOTAL NUMBER OF POINT SOURCES/SINKS PRESENT IN THE FLOW MODEL =    41

 MAXIMUM STEPSIZE WHICH MEETS STABILITY CRITERION OF THE SINK & SOURCE TERM
 =  180.0    (WHEN MIN. R.F.=1)  AT K=   1, I=   5, J=   5

 MAXIMUM STEPSIZE WHICH MEETS STABILITY CRITERION OF THE DISPERSION TERM
 =  533.1    (WHEN MIN. R.F.=1)  AT K=   1, I=   5, J=   5


     1 CALLS TO GCG PACKAGE FOR TRANSPORT TIME STEP   1 IN FLOW TIME STEP  28 STRESS PERIOD   2
     2 TOTAL ITERATIONS
  MAXIMUM CONCENTRATION CHANGES FOR EACH ITERATION:
  MAX. CHANGE LAYER,ROW,COL MAX. CHANGE LAYER,ROW,COL MAX. CHANGE LAYER,ROW,COL MAX. CHANGE LAYER,ROW,COL MAX. CHANGE LAYER,ROW,COL
 ------------------------------------------------------------------------------------------------------------------------------------
   0.3367E-01 (  1,  5,  5)  0.6548E-10 (  1,  4,  6)


                                          ================================================
                                                         TIME STEP NO.  029
                                          ================================================

 FROM TIME =   29.000     TO    30.000    


                    "THKSAT          " FLOW TERMS FOR TIME STEP 29, STRESS PERIOD  2 READ UNFORMATTED ON UNIT 10
                    --------------------------------------------------------------------------------------------

                    "QXX             " FLOW TERMS FOR TIME STEP 29, STRESS PERIOD  2 READ UNFORMATTED ON UNIT 10
                    --------------------------------------------------------------------------------------------

                    "QYY             " FLOW TERMS FOR TIME STEP 29, STRESS PERIOD  2 READ UNFORMATTED ON UNIT 10
                    --------------------------------------------------------------------------------------------

                    "QZZ             " FLOW TERMS FOR TIME STEP 29, STRESS PERIOD  2 READ UNFORMATTED ON UNIT 10
                    --------------------------------------------------------------------------------------------

                    "STO             " FLOW TERMS FOR TIME STEP 29, STRESS PERIOD  2 READ UNFORMATTED ON UNIT 10
                    --------------------------------------------------------------------------------------------

 MAXIMUM STEPSIZE DURING WHICH ANY PARTICLE CANNOT MOVE MORE THAN ONE CELL
 =  780.7    (WHEN MIN. R.F.=1)  AT K=   2, I=   5, J=   9

 MAXIMUM STEPSIZE WHICH MEETS STABILITY CRITERION OF THE ADVECTION TERM
 (FOR PURE FINITE-DIFFERENCE OPTION, MIXELM=0) 
 =  273.4    (WHEN MIN. R.F.=1)  AT K=   2, I=   5, J=   5

                    "CNH             " FLOW TERMS FOR TIME STEP 29, STRESS PERIOD  2 READ UNFORMATTED ON UNIT 10
                    --------------------------------------------------------------------------------------------

                    "WEL             " FLOW TERMS FOR TIME STEP 29, STRESS PERIOD  2 READ UNFORMATTED ON UNIT 10
                    --------------------------------------------------------------------------------------------

                    "GHB             " FLOW TERMS FOR TIME STEP 29, STRESS PERIOD  2 READ UNFORMATTED ON UNIT 10
                    --------------------------------------------------------------------------------------------


 TOTAL NUMBER OF POINT SOURCES/SINKS PRESENT IN THE FLOW MODEL =    41

 MAXIMUM STEPSIZE WHICH MEETS STABILITY CRITERION OF THE SINK & SOURCE TERM
 =  180.0    (WHEN MIN. R.F.=1)  AT K=   1, I=   5, J=   5

 MAXIMUM STEPSIZE WHICH MEETS STABILITY CRITERION OF THE DISPERSION TERM
 =  533.1    (WHEN MIN. R.F.=1)  AT K=   1, I=   5, J=   5


     1 CALLS TO GCG PACKAGE FOR TRANSPORT TIME STEP   1 IN FLOW TIME STEP  29 STRESS PERIOD   2
     2 TOTAL ITERATIONS
  MAXIMUM CONCENTRATION CHANGES FOR EACH ITERATION:
  MAX. CHANGE LAYER,ROW,COL MAX. CHANGE LAYER,ROW,COL MAX. CHANGE LAYER,ROW,COL MAX. CHANGE LAYER,ROW,COL MAX. CHANGE LAYER,ROW,COL
 ------------------------------------------------------------------------------------------------------------------------------------
   0.3236E-01 (  1,  5,  5)  0.6548E-10 (  1,  4,  6)


                                          ================================================
                                                         TIME STEP NO.  030
                                          ================================================

 FROM TIME =   30.000     TO    31.000    


                    "THKSAT          " FLOW TERMS FOR TIME STEP 30, STRESS PERIOD  2 READ UNFORMATTED ON UNIT 10
                    --------------------------------------------------------------------------------------------

                    "QXX             " FLOW TERMS FOR TIME STEP 30, STRESS PERIOD  2 READ UNFORMATTED ON UNIT 10
                    --------------------------------------------------------------------------------------------

                    "QYY             " FLOW TERMS FOR TIME STEP 30, STRESS PERIOD  2 READ UNFORMATTED ON UNIT 10
                    --------------------------------------------------------------------------------------------

                    "QZZ             " FLOW TERMS FOR TIME STEP 30, STRESS PERIOD  2 READ UNFORMATTED ON UNIT 10
                    --------------------------------------------------------------------------------------------

                    "STO             " FLOW TERMS FOR TIME STEP 30, STRESS PERIOD  2 READ UNFORMATTED ON UNIT 10
                    --------------------------------------------------------------------------------------------

 MAXIMUM STEPSIZE DURING WHICH ANY PARTICLE CANNOT MOVE MORE THAN ONE CELL
 =  787.1    (WHEN MIN. R.F.=1)  AT K=   2, I=   5, J=   9

 MAXIMUM STEPSIZE WHICH MEETS STABILITY CRITERION OF THE ADVECTION TERM
 (FOR PURE FINITE-DIFFERENCE OPTION, MIXELM=0) 
 =  273.2    (WHEN MIN. R.F.=1)  AT K=   2, I=   5, J=   5

                    "CNH             " FLOW TERMS FOR TIME STEP 30, STRESS PERIOD  2 READ UNFORMATTED ON UNIT 10
                    --------------------------------------------------------------------------------------------

                    "WEL             " FLOW TERMS FOR TIME STEP 30, STRESS PERIOD  2 READ UNFORMATTED ON UNIT 10
                    --------------------------------------------------------------------------------------------

                    "GHB             " FLOW TERMS FOR TIME STEP 30, STRESS PERIOD  2 READ UNFORMATTED ON UNIT 10
                    --------------------------------------------------------------------------------------------


 TOTAL NUMBER OF POINT SOURCES/SINKS PRESENT IN THE FLOW MODEL =    41

 MAXIMUM STEPSIZE WHICH MEETS STABILITY CRITERION OF THE SINK & SOURCE TERM
 =  180.0    (WHEN MIN. R.F.=1)  AT K=   1, I=   5, J=   5

 MAXIMUM STEPSIZE WHICH MEETS STABILITY CRITERION OF THE DISPERSION TERM
 =  533.2    (WHEN MIN. R.F.=1)  AT K=   1, I=   5, J=   5


     1 CALLS TO GCG PACKAGE FOR TRANSPORT TIME STEP   1 IN FLOW TIME STEP  30 STRESS PERIOD   2
     2 TOTAL ITERATIONS
  MAXIMUM CONCENTRATION CHANGES FOR EACH ITERATION:
  MAX. CHANGE LAYER,ROW,COL MAX. CHANGE LAYER,ROW,COL MAX. CHANGE LAYER,ROW,COL MAX. CHANGE LAYER,ROW,COL MAX. CHANGE LAYER,ROW,COL
 ------------------------------------------------------------------------------------------------------------------------------------
   0.3114E-01 (  1,  5,  5)  0.6548E-10 (  1,  4,  6)


                                          ================================================
                                                         TIME STEP NO.  031
                                          ================================================

 FROM TIME =   31.000     TO    32.000    


                    "THKSAT          " FLOW TERMS FOR TIME STEP 31, STRESS PERIOD  2 READ UNFORMATTED ON UNIT 10
                    --------------------------------------------------------------------------------------------

                    "QXX             " FLOW TERMS FOR TIME STEP 31, STRESS PERIOD  2 READ UNFORMATTED ON UNIT 10
                    --------------------------------------------------------------------------------------------

                    "QYY             " FLOW TERMS FOR TIME STEP 31, STRESS PERIOD  2 READ UNFORMATTED ON UNIT 10
                    --------------------------------------------------------------------------------------------

                    "QZZ             " FLOW TERMS FOR TIME STEP 31, STRESS PERIOD  2 READ UNFORMATTED ON UNIT 10
                    --------------------------------------------------------------------------------------------

                    "STO             " FLOW TERMS FOR TIME STEP 31, STRESS PERIOD  2 READ UNFORMATTED ON UNIT 10
                    --------------------------------------------------------------------------------------------

 MAXIMUM STEPSIZE DURING WHICH ANY PARTICLE CANNOT MOVE MORE THAN ONE CELL
 =  793.6    (WHEN MIN. R.F.=1)  AT K=   2, I=   5, J=   9

 MAXIMUM STEPSIZE WHICH MEETS STABILITY CRITERION OF THE ADVECTION TERM
 (FOR PURE FINITE-DIFFERENCE OPTION, MIXELM=0) 
 =  273.0    (WHEN MIN. R.F.=1)  AT K=   2, I=   5, J=   5

                    "CNH             " FLOW TERMS FOR TIME STEP 31, STRESS PERIOD  2 READ UNFORMATTED ON UNIT 10
                    --------------------------------------------------------------------------------------------

                    "WEL             " FLOW TERMS FOR TIME STEP 31, STRESS PERIOD  2 READ UNFORMATTED ON UNIT 10
                    --------------------------------------------------------------------------------------------

                    "GHB             " FLOW TERMS FOR TIME STEP 31, STRESS PERIOD  2 READ UNFORMATTED ON UNIT 10
                    --------------------------------------------------------------------------------------------


 TOTAL NUMBER OF POINT SOURCES/SINKS PRESENT IN THE FLOW MODEL =    41

 MAXIMUM STEPSIZE WHICH MEETS STABILITY CRITERION OF THE SINK & SOURCE TERM
 =  180.0    (WHEN MIN. R.F.=1)  AT K=   1, I=   5, J=   5

 MAXIMUM STEPSIZE WHICH MEETS STABILITY CRITERION OF THE DISPERSION TERM
 =  533.2    (WHEN MIN. R.F.=1)  AT K=   1, I=   5, J=   5


     1 CALLS TO GCG PACKAGE FOR TRANSPORT TIME STEP   1 IN FLOW TIME STEP  31 STRESS PERIOD   2
     2 TOTAL ITERATIONS
  MAXIMUM CONCENTRATION CHANGES FOR EACH ITERATION:
  MAX. CHANGE LAYER,ROW,COL MAX. CHANGE LAYER,ROW,COL MAX. CHANGE LAYER,ROW,COL MAX. CHANGE LAYER,ROW,COL MAX. CHANGE LAYER,ROW,COL
 ------------------------------------------------------------------------------------------------------------------------------------
   0.3000E-01 (  1,  5,  5)  0.5821E-10 (  1,  4,  6)


                                          ================================================
                                                         TIME STEP NO.  032
                                          ================================================

 FROM TIME =   32.000     TO    33.000    


                    "THKSAT          " FLOW TERMS FOR TIME STEP 32, STRESS PERIOD  2 READ UNFORMATTED ON UNIT 10
                    --------------------------------------------------------------------------------------------

                    "QXX             " FLOW TERMS FOR TIME STEP 32, STRESS PERIOD  2 READ UNFORMATTED ON UNIT 10
                    --------------------------------------------------------------------------------------------

                    "QYY             " FLOW TERMS FOR TIME STEP 32, STRESS PERIOD  2 READ UNFORMATTED ON UNIT 10
                    --------------------------------------------------------------------------------------------

                    "QZZ             " FLOW TERMS FOR TIME STEP 32, STRESS PERIOD  2 READ UNFORMATTED ON UNIT 10
                    --------------------------------------------------------------------------------------------

                    "STO             " FLOW TERMS FOR TIME STEP 32, STRESS PERIOD  2 READ UNFORMATTED ON UNIT 10
                    --------------------------------------------------------------------------------------------

 MAXIMUM STEPSIZE DURING WHICH ANY PARTICLE CANNOT MOVE MORE THAN ONE CELL
 =  800.0    (WHEN MIN. R.F.=1)  AT K=   2, I=   5, J=   9

 MAXIMUM STEPSIZE WHICH MEETS STABILITY CRITERION OF THE ADVECTION TERM
 (FOR PURE FINITE-DIFFERENCE OPTION, MIXELM=0) 
 =  272.8    (WHEN MIN. R.F.=1)  AT K=   2, I=   5, J=   5

                    "CNH             " FLOW TERMS FOR TIME STEP 32, STRESS PERIOD  2 READ UNFORMATTED ON UNIT 10
                    --------------------------------------------------------------------------------------------

                    "WEL             " FLOW TERMS FOR TIME STEP 32, STRESS PERIOD  2 READ UNFORMATTED ON UNIT 10
                    --------------------------------------------------------------------------------------------

                    "GHB             " FLOW TERMS FOR TIME STEP 32, STRESS PERIOD  2 READ UNFORMATTED ON UNIT 10
                    --------------------------------------------------------------------------------------------


 TOTAL NUMBER OF POINT SOURCES/SINKS PRESENT IN THE FLOW MODEL =    41

 MAXIMUM STEPSIZE WHICH MEETS STABILITY CRITERION OF THE SINK & SOURCE TERM
 =  180.0    (WHEN MIN. R.F.=1)  AT K=   1, I=   5, J=   5

 MAXIMUM STEPSIZE WHICH MEETS STABILITY CRITERION OF THE DISPERSION TERM
 =  533.3    (WHEN MIN. R.F.=1)  AT K=   1, I=   5, J=   5


     1 CALLS TO GCG PACKAGE FOR TRANSPORT TIME STEP   1 IN FLOW TIME STEP  32 STRESS PERIOD   2
     2 TOTAL ITERATIONS
  MAXIMUM CONCENTRATION CHANGES FOR EACH ITERATION:
  MAX. CHANGE LAYER,ROW,COL MAX. CHANGE LAYER,ROW,COL MAX. CHANGE LAYER,ROW,COL MAX. CHANGE LAYER,ROW,COL MAX. CHANGE LAYER,ROW,COL
 ------------------------------------------------------------------------------------------------------------------------------------
   0.2893E-01 (  1,  5,  5)  0.5821E-10 (  1,  4,  6)


                                          ================================================
                                                         TIME STEP NO.  033
                                          ================================================

 FROM TIME =   33.000     TO    34.000    


                    "THKSAT          " FLOW TERMS FOR TIME STEP 33, STRESS PERIOD  2 READ UNFORMATTED ON UNIT 10
                    --------------------------------------------------------------------------------------------

                    "QXX             " FLOW TERMS FOR TIME STEP 33, STRESS PERIOD  2 READ UNFORMATTED ON UNIT 10
                    --------------------------------------------------------------------------------------------

                    "QYY             " FLOW TERMS FOR TIME STEP 33, STRESS PERIOD  2 READ UNFORMATTED ON UNIT 10
                    --------------------------------------------------------------------------------------------

                    "QZZ             " FLOW TERMS FOR TIME STEP 33, STRESS PERIOD  2 READ UNFORMATTED ON UNIT 10
                    --------------------------------------------------------------------------------------------

                    "STO             " FLOW TERMS FOR TIME STEP 33, STRESS PERIOD  2 READ UNFORMATTED ON UNIT 10
                    --------------------------------------------------------------------------------------------

 MAXIMUM STEPSIZE DURING WHICH ANY PARTICLE CANNOT MOVE MORE THAN ONE CELL
 =  806.4    (WHEN MIN. R.F.=1)  AT K=   2, I=   5, J=   9

 MAXIMUM STEPSIZE WHICH MEETS STABILITY CRITERION OF THE ADVECTION TERM
 (FOR PURE FINITE-DIFFERENCE OPTION, MIXELM=0) 
 =  272.7    (WHEN MIN. R.F.=1)  AT K=   2, I=   5, J=   5

                    "CNH             " FLOW TERMS FOR TIME STEP 33, STRESS PERIOD  2 READ UNFORMATTED ON UNIT 10
                    --------------------------------------------------------------------------------------------

                    "WEL             " FLOW TERMS FOR TIME STEP 33, STRESS PERIOD  2 READ UNFORMATTED ON UNIT 10
                    --------------------------------------------------------------------------------------------

                    "GHB             " FLOW TERMS FOR TIME STEP 33, STRESS PERIOD  2 READ UNFORMATTED ON UNIT 10
                    --------------------------------------------------------------------------------------------


 TOTAL NUMBER OF POINT SOURCES/SINKS PRESENT IN THE FLOW MODEL =    41

 MAXIMUM STEPSIZE WHICH MEETS STABILITY CRITERION OF THE SINK & SOURCE TERM
 =  180.0    (WHEN MIN. R.F.=1)  AT K=   1, I=   5, J=   5

 MAXIMUM STEPSIZE WHICH MEETS STABILITY CRITERION OF THE DISPERSION TERM
 =  533.4    (WHEN MIN. R.F.=1)  AT K=   1, I=   5, J=   5


     1 CALLS TO GCG PACKAGE FOR TRANSPORT TIME STEP   1 IN FLOW TIME STEP  33 STRESS PERIOD   2
     2 TOTAL ITERATIONS
  MAXIMUM CONCENTRATION CHANGES FOR EACH ITERATION:
  MAX. CHANGE LAYER,ROW,COL MAX. CHANGE LAYER,ROW,COL MAX. CHANGE LAYER,ROW,COL MAX. CHANGE LAYER,ROW,COL MAX. CHANGE LAYER,ROW,COL
 ------------------------------------------------------------------------------------------------------------------------------------
   0.2793E-01 (  1,  5,  5)  0.5821E-10 (  1,  4,  6)


                                          ================================================
                                                         TIME STEP NO.  034
                                          ================================================

 FROM TIME =   34.000     TO    35.000    


                    "THKSAT          " FLOW TERMS FOR TIME STEP 34, STRESS PERIOD  2 READ UNFORMATTED ON UNIT 10
                    --------------------------------------------------------------------------------------------

                    "QXX             " FLOW TERMS FOR TIME STEP 34, STRESS PERIOD  2 READ UNFORMATTED ON UNIT 10
                    --------------------------------------------------------------------------------------------

                    "QYY             " FLOW TERMS FOR TIME STEP 34, STRESS PERIOD  2 READ UNFORMATTED ON UNIT 10
                    --------------------------------------------------------------------------------------------

                    "QZZ             " FLOW TERMS FOR TIME STEP 34, STRESS PERIOD  2 READ UNFORMATTED ON UNIT 10
                    --------------------------------------------------------------------------------------------

                    "STO             " FLOW TERMS FOR TIME STEP 34, STRESS PERIOD  2 READ UNFORMATTED ON UNIT 10
                    --------------------------------------------------------------------------------------------

 MAXIMUM STEPSIZE DURING WHICH ANY PARTICLE CANNOT MOVE MORE THAN ONE CELL
 =  812.8    (WHEN MIN. R.F.=1)  AT K=   2, I=   5, J=   9

 MAXIMUM STEPSIZE WHICH MEETS STABILITY CRITERION OF THE ADVECTION TERM
 (FOR PURE FINITE-DIFFERENCE OPTION, MIXELM=0) 
 =  272.5    (WHEN MIN. R.F.=1)  AT K=   2, I=   5, J=   5

                    "CNH             " FLOW TERMS FOR TIME STEP 34, STRESS PERIOD  2 READ UNFORMATTED ON UNIT 10
                    --------------------------------------------------------------------------------------------

                    "WEL             " FLOW TERMS FOR TIME STEP 34, STRESS PERIOD  2 READ UNFORMATTED ON UNIT 10
                    --------------------------------------------------------------------------------------------

                    "GHB             " FLOW TERMS FOR TIME STEP 34, STRESS PERIOD  2 READ UNFORMATTED ON UNIT 10
                    --------------------------------------------------------------------------------------------


 TOTAL NUMBER OF POINT SOURCES/SINKS PRESENT IN THE FLOW MODEL =    41

 MAXIMUM STEPSIZE WHICH MEETS STABILITY CRITERION OF THE SINK & SOURCE TERM
 =  180.0    (WHEN MIN. R.F.=1)  AT K=   1, I=   5, J=   5

 MAXIMUM STEPSIZE WHICH MEETS STABILITY CRITERION OF THE DISPERSION TERM
 =  533.5    (WHEN MIN. R.F.=1)  AT K=   1, I=   5, J=   5


     1 CALLS TO GCG PACKAGE FOR TRANSPORT TIME STEP   1 IN FLOW TIME STEP  34 STRESS PERIOD   2
     2 TOTAL ITERATIONS
  MAXIMUM CONCENTRATION CHANGES FOR EACH ITERATION:
  MAX. CHANGE LAYER,ROW,COL MAX. CHANGE LAYER,ROW,COL MAX. CHANGE LAYER,ROW,COL MAX. CHANGE LAYER,ROW,COL MAX. CHANGE LAYER,ROW,COL
 ------------------------------------------------------------------------------------------------------------------------------------
   0.2699E-01 (  1,  5,  5)  0.5821E-10 (  1,  4,  6)


                                          ================================================
                                                         TIME STEP NO.  035
                                          ================================================

 FROM TIME =   35.000     TO    36.000    


                    "THKSAT          " FLOW TERMS FOR TIME STEP 35, STRESS PERIOD  2 READ UNFORMATTED ON UNIT 10
                    --------------------------------------------------------------------------------------------

                    "QXX             " FLOW TERMS FOR TIME STEP 35, STRESS PERIOD  2 READ UNFORMATTED ON UNIT 10
                    --------------------------------------------------------------------------------------------

                    "QYY             " FLOW TERMS FOR TIME STEP 35, STRESS PERIOD  2 READ UNFORMATTED ON UNIT 10
                    --------------------------------------------------------------------------------------------

                    "QZZ             " FLOW TERMS FOR TIME STEP 35, STRESS PERIOD  2 READ UNFORMATTED ON UNIT 10
                    --------------------------------------------------------------------------------------------

                    "STO             " FLOW TERMS FOR TIME STEP 35, STRESS PERIOD  2 READ UNFORMATTED ON UNIT 10
                    --------------------------------------------------------------------------------------------

 MAXIMUM STEPSIZE DURING WHICH ANY PARTICLE CANNOT MOVE MORE THAN ONE CELL
 =  819.1    (WHEN MIN. R.F.=1)  AT K=   2, I=   5, J=   9

 MAXIMUM STEPSIZE WHICH MEETS STABILITY CRITERION OF THE ADVECTION TERM
 (FOR PURE FINITE-DIFFERENCE OPTION, MIXELM=0) 
 =  272.4    (WHEN MIN. R.F.=1)  AT K=   2, I=   5, J=   5

                    "CNH             " FLOW TERMS FOR TIME STEP 35, STRESS PERIOD  2 READ UNFORMATTED ON UNIT 10
                    --------------------------------------------------------------------------------------------

                    "WEL             " FLOW TERMS FOR TIME STEP 35, STRESS PERIOD  2 READ UNFORMATTED ON UNIT 10
                    --------------------------------------------------------------------------------------------

                    "GHB             " FLOW TERMS FOR TIME STEP 35, STRESS PERIOD  2 READ UNFORMATTED ON UNIT 10
                    --------------------------------------------------------------------------------------------


 TOTAL NUMBER OF POINT SOURCES/SINKS PRESENT IN THE FLOW MODEL =    41

 MAXIMUM STEPSIZE WHICH MEETS STABILITY CRITERION OF THE SINK & SOURCE TERM
 =  180.0    (WHEN MIN. R.F.=1)  AT K=   1, I=   5, J=   5

 MAXIMUM STEPSIZE WHICH MEETS STABILITY CRITERION OF THE DISPERSION TERM
 =  533.6    (WHEN MIN. R.F.=1)  AT K=   1, I=   5, J=   5


     1 CALLS TO GCG PACKAGE FOR TRANSPORT TIME STEP   1 IN FLOW TIME STEP  35 STRESS PERIOD   2
     2 TOTAL ITERATIONS
  MAXIMUM CONCENTRATION CHANGES FOR EACH ITERATION:
  MAX. CHANGE LAYER,ROW,COL MAX. CHANGE LAYER,ROW,COL MAX. CHANGE LAYER,ROW,COL MAX. CHANGE LAYER,ROW,COL MAX. CHANGE LAYER,ROW,COL
 ------------------------------------------------------------------------------------------------------------------------------------
   0.2610E-01 (  1,  5,  5)  0.5821E-10 (  1,  4,  6)


                                          ================================================
                                                         TIME STEP NO.  036
                                          ================================================

 FROM TIME =   36.000     TO    37.000    


                    "THKSAT          " FLOW TERMS FOR TIME STEP 36, STRESS PERIOD  2 READ UNFORMATTED ON UNIT 10
                    --------------------------------------------------------------------------------------------

                    "QXX             " FLOW TERMS FOR TIME STEP 36, STRESS PERIOD  2 READ UNFORMATTED ON UNIT 10
                    --------------------------------------------------------------------------------------------

                    "QYY             " FLOW TERMS FOR TIME STEP 36, STRESS PERIOD  2 READ UNFORMATTED ON UNIT 10
                    --------------------------------------------------------------------------------------------

                    "QZZ             " FLOW TERMS FOR TIME STEP 36, STRESS PERIOD  2 READ UNFORMATTED ON UNIT 10
                    --------------------------------------------------------------------------------------------

                    "STO             " FLOW TERMS FOR TIME STEP 36, STRESS PERIOD  2 READ UNFORMATTED ON UNIT 10
                    --------------------------------------------------------------------------------------------

 MAXIMUM STEPSIZE DURING WHICH ANY PARTICLE CANNOT MOVE MORE THAN ONE CELL
 =  825.4    (WHEN MIN. R.F.=1)  AT K=   2, I=   5, J=   9

 MAXIMUM STEPSIZE WHICH MEETS STABILITY CRITERION OF THE ADVECTION TERM
 (FOR PURE FINITE-DIFFERENCE OPTION, MIXELM=0) 
 =  272.2    (WHEN MIN. R.F.=1)  AT K=   2, I=   5, J=   5

                    "CNH             " FLOW TERMS FOR TIME STEP 36, STRESS PERIOD  2 READ UNFORMATTED ON UNIT 10
                    --------------------------------------------------------------------------------------------

                    "WEL             " FLOW TERMS FOR TIME STEP 36, STRESS PERIOD  2 READ UNFORMATTED ON UNIT 10
                    --------------------------------------------------------------------------------------------

                    "GHB             " FLOW TERMS FOR TIME STEP 36, STRESS PERIOD  2 READ UNFORMATTED ON UNIT 10
                    --------------------------------------------------------------------------------------------


 TOTAL NUMBER OF POINT SOURCES/SINKS PRESENT IN THE FLOW MODEL =    41

 MAXIMUM STEPSIZE WHICH MEETS STABILITY CRITERION OF THE SINK & SOURCE TERM
 =  180.0    (WHEN MIN. R.F.=1)  AT K=   1, I=   5, J=   5

 MAXIMUM STEPSIZE WHICH MEETS STABILITY CRITERION OF THE DISPERSION TERM
 =  533.7    (WHEN MIN. R.F.=1)  AT K=   1, I=   5, J=   5


     1 CALLS TO GCG PACKAGE FOR TRANSPORT TIME STEP   1 IN FLOW TIME STEP  36 STRESS PERIOD   2
     2 TOTAL ITERATIONS
  MAXIMUM CONCENTRATION CHANGES FOR EACH ITERATION:
  MAX. CHANGE LAYER,ROW,COL MAX. CHANGE LAYER,ROW,COL MAX. CHANGE LAYER,ROW,COL MAX. CHANGE LAYER,ROW,COL MAX. CHANGE LAYER,ROW,COL
 ------------------------------------------------------------------------------------------------------------------------------------
   0.2527E-01 (  1,  5,  5)  0.5821E-10 (  1,  4,  6)


                                          ================================================
                                                         TIME STEP NO.  037
                                          ================================================

 FROM TIME =   37.000     TO    38.000    


                    "THKSAT          " FLOW TERMS FOR TIME STEP 37, STRESS PERIOD  2 READ UNFORMATTED ON UNIT 10
                    --------------------------------------------------------------------------------------------

                    "QXX             " FLOW TERMS FOR TIME STEP 37, STRESS PERIOD  2 READ UNFORMATTED ON UNIT 10
                    --------------------------------------------------------------------------------------------

                    "QYY             " FLOW TERMS FOR TIME STEP 37, STRESS PERIOD  2 READ UNFORMATTED ON UNIT 10
                    --------------------------------------------------------------------------------------------

                    "QZZ             " FLOW TERMS FOR TIME STEP 37, STRESS PERIOD  2 READ UNFORMATTED ON UNIT 10
                    --------------------------------------------------------------------------------------------

                    "STO             " FLOW TERMS FOR TIME STEP 37, STRESS PERIOD  2 READ UNFORMATTED ON UNIT 10
                    --------------------------------------------------------------------------------------------

 MAXIMUM STEPSIZE DURING WHICH ANY PARTICLE CANNOT MOVE MORE THAN ONE CELL
 =  831.6    (WHEN MIN. R.F.=1)  AT K=   2, I=   5, J=   9

 MAXIMUM STEPSIZE WHICH MEETS STABILITY CRITERION OF THE ADVECTION TERM
 (FOR PURE FINITE-DIFFERENCE OPTION, MIXELM=0) 
 =  272.0    (WHEN MIN. R.F.=1)  AT K=   2, I=   5, J=   5

                    "CNH             " FLOW TERMS FOR TIME STEP 37, STRESS PERIOD  2 READ UNFORMATTED ON UNIT 10
                    --------------------------------------------------------------------------------------------

                    "WEL             " FLOW TERMS FOR TIME STEP 37, STRESS PERIOD  2 READ UNFORMATTED ON UNIT 10
                    --------------------------------------------------------------------------------------------

                    "GHB             " FLOW TERMS FOR TIME STEP 37, STRESS PERIOD  2 READ UNFORMATTED ON UNIT 10
                    --------------------------------------------------------------------------------------------


 TOTAL NUMBER OF POINT SOURCES/SINKS PRESENT IN THE FLOW MODEL =    41

 MAXIMUM STEPSIZE WHICH MEETS STABILITY CRITERION OF THE SINK & SOURCE TERM
 =  180.0    (WHEN MIN. R.F.=1)  AT K=   1, I=   5, J=   5

 MAXIMUM STEPSIZE WHICH MEETS STABILITY CRITERION OF THE DISPERSION TERM
 =  533.8    (WHEN MIN. R.F.=1)  AT K=   1, I=   5, J=   5


     1 CALLS TO GCG PACKAGE FOR TRANSPORT TIME STEP   1 IN FLOW TIME STEP  37 STRESS PERIOD   2
     2 TOTAL ITERATIONS
  MAXIMUM CONCENTRATION CHANGES FOR EACH ITERATION:
  MAX. CHANGE LAYER,ROW,COL MAX. CHANGE LAYER,ROW,COL MAX. CHANGE LAYER,ROW,COL MAX. CHANGE LAYER,ROW,COL MAX. CHANGE LAYER,ROW,COL
 ------------------------------------------------------------------------------------------------------------------------------------
   0.2448E-01 (  1,  5,  5)  0.5821E-10 (  1,  4,  6)


                                          ================================================
                                                         TIME STEP NO.  038
                                          ================================================

 FROM TIME =   38.000     TO    39.000    


                    "THKSAT          " FLOW TERMS FOR TIME STEP 38, STRESS PERIOD  2 READ UNFORMATTED ON UNIT 10
                    --------------------------------------------------------------------------------------------

                    "QXX             " FLOW TERMS FOR TIME STEP 38, STRESS PERIOD  2 READ UNFORMATTED ON UNIT 10
                    --------------------------------------------------------------------------------------------

                    "QYY             " FLOW TERMS FOR TIME STEP 38, STRESS PERIOD  2 READ UNFORMATTED ON UNIT 10
                    --------------------------------------------------------------------------------------------

                    "QZZ             " FLOW TERMS FOR TIME STEP 38, STRESS PERIOD  2 READ UNFORMATTED ON UNIT 10
                    --------------------------------------------------------------------------------------------

                    "STO             " FLOW TERMS FOR TIME STEP 38, STRESS PERIOD  2 READ UNFORMATTED ON UNIT 10
                    --------------------------------------------------------------------------------------------

 MAXIMUM STEPSIZE DURING WHICH ANY PARTICLE CANNOT MOVE MORE THAN ONE CELL
 =  837.9    (WHEN MIN. R.F.=1)  AT K=   2, I=   5, J=   9

 MAXIMUM STEPSIZE WHICH MEETS STABILITY CRITERION OF THE ADVECTION TERM
 (FOR PURE FINITE-DIFFERENCE OPTION, MIXELM=0) 
 =  271.8    (WHEN MIN. R.F.=1)  AT K=   2, I=   5, J=   5

                    "CNH             " FLOW TERMS FOR TIME STEP 38, STRESS PERIOD  2 READ UNFORMATTED ON UNIT 10
                    --------------------------------------------------------------------------------------------

                    "WEL             " FLOW TERMS FOR TIME STEP 38, STRESS PERIOD  2 READ UNFORMATTED ON UNIT 10
                    --------------------------------------------------------------------------------------------

                    "GHB             " FLOW TERMS FOR TIME STEP 38, STRESS PERIOD  2 READ UNFORMATTED ON UNIT 10
                    --------------------------------------------------------------------------------------------


 TOTAL NUMBER OF POINT SOURCES/SINKS PRESENT IN THE FLOW MODEL =    41

 MAXIMUM STEPSIZE WHICH MEETS STABILITY CRITERION OF THE SINK & SOURCE TERM
 =  180.0    (WHEN MIN. R.F.=1)  AT K=   1, I=   5, J=   5

 MAXIMUM STEPSIZE WHICH MEETS STABILITY CRITERION OF THE DISPERSION TERM
 =  533.9    (WHEN MIN. R.F.=1)  AT K=   1, I=   5, J=   5


     1 CALLS TO GCG PACKAGE FOR TRANSPORT TIME STEP   1 IN FLOW TIME STEP  38 STRESS PERIOD   2
     2 TOTAL ITERATIONS
  MAXIMUM CONCENTRATION CHANGES FOR EACH ITERATION:
  MAX. CHANGE LAYER,ROW,COL MAX. CHANGE LAYER,ROW,COL MAX. CHANGE LAYER,ROW,COL MAX. CHANGE LAYER,ROW,COL MAX. CHANGE LAYER,ROW,COL
 ------------------------------------------------------------------------------------------------------------------------------------
   0.2374E-01 (  1,  5,  5)  0.4366E-10 (  1,  4,  6)


                                          ================================================
                                                         TIME STEP NO.  039
                                          ================================================

 FROM TIME =   39.000     TO    40.000    


                    "THKSAT          " FLOW TERMS FOR TIME STEP 39, STRESS PERIOD  2 READ UNFORMATTED ON UNIT 10
                    --------------------------------------------------------------------------------------------

                    "QXX             " FLOW TERMS FOR TIME STEP 39, STRESS PERIOD  2 READ UNFORMATTED ON UNIT 10
                    --------------------------------------------------------------------------------------------

                    "QYY             " FLOW TERMS FOR TIME STEP 39, STRESS PERIOD  2 READ UNFORMATTED ON UNIT 10
                    --------------------------------------------------------------------------------------------

                    "QZZ             " FLOW TERMS FOR TIME STEP 39, STRESS PERIOD  2 READ UNFORMATTED ON UNIT 10
                    --------------------------------------------------------------------------------------------

                    "STO             " FLOW TERMS FOR TIME STEP 39, STRESS PERIOD  2 READ UNFORMATTED ON UNIT 10
                    --------------------------------------------------------------------------------------------

 MAXIMUM STEPSIZE DURING WHICH ANY PARTICLE CANNOT MOVE MORE THAN ONE CELL
 =  844.0    (WHEN MIN. R.F.=1)  AT K=   2, I=   5, J=   9

 MAXIMUM STEPSIZE WHICH MEETS STABILITY CRITERION OF THE ADVECTION TERM
 (FOR PURE FINITE-DIFFERENCE OPTION, MIXELM=0) 
 =  271.6    (WHEN MIN. R.F.=1)  AT K=   2, I=   5, J=   5

                    "CNH             " FLOW TERMS FOR TIME STEP 39, STRESS PERIOD  2 READ UNFORMATTED ON UNIT 10
                    --------------------------------------------------------------------------------------------

                    "WEL             " FLOW TERMS FOR TIME STEP 39, STRESS PERIOD  2 READ UNFORMATTED ON UNIT 10
                    --------------------------------------------------------------------------------------------

                    "GHB             " FLOW TERMS FOR TIME STEP 39, STRESS PERIOD  2 READ UNFORMATTED ON UNIT 10
                    --------------------------------------------------------------------------------------------


 TOTAL NUMBER OF POINT SOURCES/SINKS PRESENT IN THE FLOW MODEL =    41

 MAXIMUM STEPSIZE WHICH MEETS STABILITY CRITERION OF THE SINK & SOURCE TERM
 =  180.0    (WHEN MIN. R.F.=1)  AT K=   1, I=   5, J=   5

 MAXIMUM STEPSIZE WHICH MEETS STABILITY CRITERION OF THE DISPERSION TERM
 =  534.0    (WHEN MIN. R.F.=1)  AT K=   1, I=   5, J=   5


     1 CALLS TO GCG PACKAGE FOR TRANSPORT TIME STEP   1 IN FLOW TIME STEP  39 STRESS PERIOD   2
     2 TOTAL ITERATIONS
  MAXIMUM CONCENTRATION CHANGES FOR EACH ITERATION:
  MAX. CHANGE LAYER,ROW,COL MAX. CHANGE LAYER,ROW,COL MAX. CHANGE LAYER,ROW,COL MAX. CHANGE LAYER,ROW,COL MAX. CHANGE LAYER,ROW,COL
 ------------------------------------------------------------------------------------------------------------------------------------
   0.2304E-01 (  1,  5,  5)  0.4366E-10 (  1,  4,  6)


                                          ================================================
                                                         TIME STEP NO.  040
                                          ================================================

 FROM TIME =   40.000     TO    41.000    


                    "THKSAT          " FLOW TERMS FOR TIME STEP 40, STRESS PERIOD  2 READ UNFORMATTED ON UNIT 10
                    --------------------------------------------------------------------------------------------

                    "QXX             " FLOW TERMS FOR TIME STEP 40, STRESS PERIOD  2 READ UNFORMATTED ON UNIT 10
                    --------------------------------------------------------------------------------------------

                    "QYY             " FLOW TERMS FOR TIME STEP 40, STRESS PERIOD  2 READ UNFORMATTED ON UNIT 10
                    --------------------------------------------------------------------------------------------

                    "QZZ             " FLOW TERMS FOR TIME STEP 40, STRESS PERIOD  2 READ UNFORMATTED ON UNIT 10
                    --------------------------------------------------------------------------------------------

                    "STO             " FLOW TERMS FOR TIME STEP 40, STRESS PERIOD  2 READ UNFORMATTED ON UNIT 10
                    --------------------------------------------------------------------------------------------

 MAXIMUM STEPSIZE DURING WHICH ANY PARTICLE CANNOT MOVE MORE THAN ONE CELL
 =  844.4    (WHEN MIN. R.F.=1)  AT K=   2, I=   5, J=   5

 MAXIMUM STEPSIZE WHICH MEETS STABILITY CRITERION OF THE ADVECTION TERM
 (FOR PURE FINITE-DIFFERENCE OPTION, MIXELM=0) 
 =  271.5    (WHEN MIN. R.F.=1)  AT K=   2, I=   5, J=   5

                    "CNH             " FLOW TERMS FOR TIME STEP 40, STRESS PERIOD  2 READ UNFORMATTED ON UNIT 10
                    --------------------------------------------------------------------------------------------

                    "WEL             " FLOW TERMS FOR TIME STEP 40, STRESS PERIOD  2 READ UNFORMATTED ON UNIT 10
                    --------------------------------------------------------------------------------------------

                    "GHB             " FLOW TERMS FOR TIME STEP 40, STRESS PERIOD  2 READ UNFORMATTED ON UNIT 10
                    --------------------------------------------------------------------------------------------


 TOTAL NUMBER OF POINT SOURCES/SINKS PRESENT IN THE FLOW MODEL =    41

 MAXIMUM STEPSIZE WHICH MEETS STABILITY CRITERION OF THE SINK & SOURCE TERM
 =  180.0    (WHEN MIN. R.F.=1)  AT K=   1, I=   5, J=   5

 MAXIMUM STEPSIZE WHICH MEETS STABILITY CRITERION OF THE DISPERSION TERM
 =  534.1    (WHEN MIN. R.F.=1)  AT K=   1, I=   5, J=   5


     1 CALLS TO GCG PACKAGE FOR TRANSPORT TIME STEP   1 IN FLOW TIME STEP  40 STRESS PERIOD   2
     2 TOTAL ITERATIONS
  MAXIMUM CONCENTRATION CHANGES FOR EACH ITERATION:
  MAX. CHANGE LAYER,ROW,COL MAX. CHANGE LAYER,ROW,COL MAX. CHANGE LAYER,ROW,COL MAX. CHANGE LAYER,ROW,COL MAX. CHANGE LAYER,ROW,COL
 ------------------------------------------------------------------------------------------------------------------------------------
   0.2237E-01 (  1,  5,  5)  0.4366E-10 (  1,  4,  6)


                                          ================================================
                                                         TIME STEP NO.  041
                                          ================================================

 FROM TIME =   41.000     TO    42.000    


                    "THKSAT          " FLOW TERMS FOR TIME STEP 41, STRESS PERIOD  2 READ UNFORMATTED ON UNIT 10
                    --------------------------------------------------------------------------------------------

                    "QXX             " FLOW TERMS FOR TIME STEP 41, STRESS PERIOD  2 READ UNFORMATTED ON UNIT 10
                    --------------------------------------------------------------------------------------------

                    "QYY             " FLOW TERMS FOR TIME STEP 41, STRESS PERIOD  2 READ UNFORMATTED ON UNIT 10
                    --------------------------------------------------------------------------------------------

                    "QZZ             " FLOW TERMS FOR TIME STEP 41, STRESS PERIOD  2 READ UNFORMATTED ON UNIT 10
                    --------------------------------------------------------------------------------------------

                    "STO             " FLOW TERMS FOR TIME STEP 41, STRESS PERIOD  2 READ UNFORMATTED ON UNIT 10
                    --------------------------------------------------------------------------------------------

 MAXIMUM STEPSIZE DURING WHICH ANY PARTICLE CANNOT MOVE MORE THAN ONE CELL
 =  844.4    (WHEN MIN. R.F.=1)  AT K=   2, I=   5, J=   5

 MAXIMUM STEPSIZE WHICH MEETS STABILITY CRITERION OF THE ADVECTION TERM
 (FOR PURE FINITE-DIFFERENCE OPTION, MIXELM=0) 
 =  271.3    (WHEN MIN. R.F.=1)  AT K=   2, I=   5, J=   5

                    "CNH             " FLOW TERMS FOR TIME STEP 41, STRESS PERIOD  2 READ UNFORMATTED ON UNIT 10
                    --------------------------------------------------------------------------------------------

                    "WEL             " FLOW TERMS FOR TIME STEP 41, STRESS PERIOD  2 READ UNFORMATTED ON UNIT 10
                    --------------------------------------------------------------------------------------------

                    "GHB             " FLOW TERMS FOR TIME STEP 41, STRESS PERIOD  2 READ UNFORMATTED ON UNIT 10
                    --------------------------------------------------------------------------------------------


 TOTAL NUMBER OF POINT SOURCES/SINKS PRESENT IN THE FLOW MODEL =    41

 MAXIMUM STEPSIZE WHICH MEETS STABILITY CRITERION OF THE SINK & SOURCE TERM
 =  180.0    (WHEN MIN. R.F.=1)  AT K=   1, I=   5, J=   5

 MAXIMUM STEPSIZE WHICH MEETS STABILITY CRITERION OF THE DISPERSION TERM
 =  534.2    (WHEN MIN. R.F.=1)  AT K=   1, I=   5, J=   5


     1 CALLS TO GCG PACKAGE FOR TRANSPORT TIME STEP   1 IN FLOW TIME STEP  41 STRESS PERIOD   2
     2 TOTAL ITERATIONS
  MAXIMUM CONCENTRATION CHANGES FOR EACH ITERATION:
  MAX. CHANGE LAYER,ROW,COL MAX. CHANGE LAYER,ROW,COL MAX. CHANGE LAYER,ROW,COL MAX. CHANGE LAYER,ROW,COL MAX. CHANGE LAYER,ROW,COL
 ------------------------------------------------------------------------------------------------------------------------------------
   0.2173E-01 (  1,  5,  5)  0.4366E-10 (  1,  4,  6)


                                          ================================================
                                                         TIME STEP NO.  042
                                          ================================================

 FROM TIME =   42.000     TO    43.000    


                    "THKSAT          " FLOW TERMS FOR TIME STEP 42, STRESS PERIOD  2 READ UNFORMATTED ON UNIT 10
                    --------------------------------------------------------------------------------------------

                    "QXX             " FLOW TERMS FOR TIME STEP 42, STRESS PERIOD  2 READ UNFORMATTED ON UNIT 10
                    --------------------------------------------------------------------------------------------

                    "QYY             " FLOW TERMS FOR TIME STEP 42, STRESS PERIOD  2 READ UNFORMATTED ON UNIT 10
                    --------------------------------------------------------------------------------------------

                    "QZZ             " FLOW TERMS FOR TIME STEP 42, STRESS PERIOD  2 READ UNFORMATTED ON UNIT 10
                    --------------------------------------------------------------------------------------------

                    "STO             " FLOW TERMS FOR TIME STEP 42, STRESS PERIOD  2 READ UNFORMATTED ON UNIT 10
                    --------------------------------------------------------------------------------------------

 MAXIMUM STEPSIZE DURING WHICH ANY PARTICLE CANNOT MOVE MORE THAN ONE CELL
 =  844.4    (WHEN MIN. R.F.=1)  AT K=   2, I=   5, J=   5

 MAXIMUM STEPSIZE WHICH MEETS STABILITY CRITERION OF THE ADVECTION TERM
 (FOR PURE FINITE-DIFFERENCE OPTION, MIXELM=0) 
 =  271.1    (WHEN MIN. R.F.=1)  AT K=   2, I=   5, J=   5

                    "CNH             " FLOW TERMS FOR TIME STEP 42, STRESS PERIOD  2 READ UNFORMATTED ON UNIT 10
                    --------------------------------------------------------------------------------------------

                    "WEL             " FLOW TERMS FOR TIME STEP 42, STRESS PERIOD  2 READ UNFORMATTED ON UNIT 10
                    --------------------------------------------------------------------------------------------

                    "GHB             " FLOW TERMS FOR TIME STEP 42, STRESS PERIOD  2 READ UNFORMATTED ON UNIT 10
                    --------------------------------------------------------------------------------------------


 TOTAL NUMBER OF POINT SOURCES/SINKS PRESENT IN THE FLOW MODEL =    41

 MAXIMUM STEPSIZE WHICH MEETS STABILITY CRITERION OF THE SINK & SOURCE TERM
 =  180.0    (WHEN MIN. R.F.=1)  AT K=   1, I=   5, J=   5

 MAXIMUM STEPSIZE WHICH MEETS STABILITY CRITERION OF THE DISPERSION TERM
 =  534.3    (WHEN MIN. R.F.=1)  AT K=   1, I=   5, J=   5


     1 CALLS TO GCG PACKAGE FOR TRANSPORT TIME STEP   1 IN FLOW TIME STEP  42 STRESS PERIOD   2
     2 TOTAL ITERATIONS
  MAXIMUM CONCENTRATION CHANGES FOR EACH ITERATION:
  MAX. CHANGE LAYER,ROW,COL MAX. CHANGE LAYER,ROW,COL MAX. CHANGE LAYER,ROW,COL MAX. CHANGE LAYER,ROW,COL MAX. CHANGE LAYER,ROW,COL
 ------------------------------------------------------------------------------------------------------------------------------------
   0.2113E-01 (  1,  5,  5)  0.4366E-10 (  1,  4,  6)


                                          ================================================
                                                         TIME STEP NO.  043
                                          ================================================

 FROM TIME =   43.000     TO    44.000    


                    "THKSAT          " FLOW TERMS FOR TIME STEP 43, STRESS PERIOD  2 READ UNFORMATTED ON UNIT 10
                    --------------------------------------------------------------------------------------------

                    "QXX             " FLOW TERMS FOR TIME STEP 43, STRESS PERIOD  2 READ UNFORMATTED ON UNIT 10
                    --------------------------------------------------------------------------------------------

                    "QYY             " FLOW TERMS FOR TIME STEP 43, STRESS PERIOD  2 READ UNFORMATTED ON UNIT 10
                    --------------------------------------------------------------------------------------------

                    "QZZ             " FLOW TERMS FOR TIME STEP 43, STRESS PERIOD  2 READ UNFORMATTED ON UNIT 10
                    --------------------------------------------------------------------------------------------

                    "STO             " FLOW TERMS FOR TIME STEP 43, STRESS PERIOD  2 READ UNFORMATTED ON UNIT 10
                    --------------------------------------------------------------------------------------------

 MAXIMUM STEPSIZE DURING WHICH ANY PARTICLE CANNOT MOVE MORE THAN ONE CELL
 =  844.4    (WHEN MIN. R.F.=1)  AT K=   2, I=   5, J=   5

 MAXIMUM STEPSIZE WHICH MEETS STABILITY CRITERION OF THE ADVECTION TERM
 (FOR PURE FINITE-DIFFERENCE OPTION, MIXELM=0) 
 =  270.9    (WHEN MIN. R.F.=1)  AT K=   2, I=   5, J=   5

                    "CNH             " FLOW TERMS FOR TIME STEP 43, STRESS PERIOD  2 READ UNFORMATTED ON UNIT 10
                    --------------------------------------------------------------------------------------------

                    "WEL             " FLOW TERMS FOR TIME STEP 43, STRESS PERIOD  2 READ UNFORMATTED ON UNIT 10
                    --------------------------------------------------------------------------------------------

                    "GHB             " FLOW TERMS FOR TIME STEP 43, STRESS PERIOD  2 READ UNFORMATTED ON UNIT 10
                    --------------------------------------------------------------------------------------------


 TOTAL NUMBER OF POINT SOURCES/SINKS PRESENT IN THE FLOW MODEL =    41

 MAXIMUM STEPSIZE WHICH MEETS STABILITY CRITERION OF THE SINK & SOURCE TERM
 =  180.0    (WHEN MIN. R.F.=1)  AT K=   1, I=   5, J=   5

 MAXIMUM STEPSIZE WHICH MEETS STABILITY CRITERION OF THE DISPERSION TERM
 =  534.5    (WHEN MIN. R.F.=1)  AT K=   1, I=   5, J=   5


     1 CALLS TO GCG PACKAGE FOR TRANSPORT TIME STEP   1 IN FLOW TIME STEP  43 STRESS PERIOD   2
     2 TOTAL ITERATIONS
  MAXIMUM CONCENTRATION CHANGES FOR EACH ITERATION:
  MAX. CHANGE LAYER,ROW,COL MAX. CHANGE LAYER,ROW,COL MAX. CHANGE LAYER,ROW,COL MAX. CHANGE LAYER,ROW,COL MAX. CHANGE LAYER,ROW,COL
 ------------------------------------------------------------------------------------------------------------------------------------
   0.2056E-01 (  1,  5,  5)  0.4366E-10 (  1,  4,  6)


                                          ================================================
                                                         TIME STEP NO.  044
                                          ================================================

 FROM TIME =   44.000     TO    45.000    


                    "THKSAT          " FLOW TERMS FOR TIME STEP 44, STRESS PERIOD  2 READ UNFORMATTED ON UNIT 10
                    --------------------------------------------------------------------------------------------

                    "QXX             " FLOW TERMS FOR TIME STEP 44, STRESS PERIOD  2 READ UNFORMATTED ON UNIT 10
                    --------------------------------------------------------------------------------------------

                    "QYY             " FLOW TERMS FOR TIME STEP 44, STRESS PERIOD  2 READ UNFORMATTED ON UNIT 10
                    --------------------------------------------------------------------------------------------

                    "QZZ             " FLOW TERMS FOR TIME STEP 44, STRESS PERIOD  2 READ UNFORMATTED ON UNIT 10
                    --------------------------------------------------------------------------------------------

                    "STO             " FLOW TERMS FOR TIME STEP 44, STRESS PERIOD  2 READ UNFORMATTED ON UNIT 10
                    --------------------------------------------------------------------------------------------

 MAXIMUM STEPSIZE DURING WHICH ANY PARTICLE CANNOT MOVE MORE THAN ONE CELL
 =  844.4    (WHEN MIN. R.F.=1)  AT K=   2, I=   5, J=   5

 MAXIMUM STEPSIZE WHICH MEETS STABILITY CRITERION OF THE ADVECTION TERM
 (FOR PURE FINITE-DIFFERENCE OPTION, MIXELM=0) 
 =  270.7    (WHEN MIN. R.F.=1)  AT K=   2, I=   5, J=   5

                    "CNH             " FLOW TERMS FOR TIME STEP 44, STRESS PERIOD  2 READ UNFORMATTED ON UNIT 10
                    --------------------------------------------------------------------------------------------

                    "WEL             " FLOW TERMS FOR TIME STEP 44, STRESS PERIOD  2 READ UNFORMATTED ON UNIT 10
                    --------------------------------------------------------------------------------------------

                    "GHB             " FLOW TERMS FOR TIME STEP 44, STRESS PERIOD  2 READ UNFORMATTED ON UNIT 10
                    --------------------------------------------------------------------------------------------


 TOTAL NUMBER OF POINT SOURCES/SINKS PRESENT IN THE FLOW MODEL =    41

 MAXIMUM STEPSIZE WHICH MEETS STABILITY CRITERION OF THE SINK & SOURCE TERM
 =  180.0    (WHEN MIN. R.F.=1)  AT K=   1, I=   5, J=   5

 MAXIMUM STEPSIZE WHICH MEETS STABILITY CRITERION OF THE DISPERSION TERM
 =  534.6    (WHEN MIN. R.F.=1)  AT K=   1, I=   5, J=   5


     1 CALLS TO GCG PACKAGE FOR TRANSPORT TIME STEP   1 IN FLOW TIME STEP  44 STRESS PERIOD   2
     2 TOTAL ITERATIONS
  MAXIMUM CONCENTRATION CHANGES FOR EACH ITERATION:
  MAX. CHANGE LAYER,ROW,COL MAX. CHANGE LAYER,ROW,COL MAX. CHANGE LAYER,ROW,COL MAX. CHANGE LAYER,ROW,COL MAX. CHANGE LAYER,ROW,COL
 ------------------------------------------------------------------------------------------------------------------------------------
   0.2001E-01 (  1,  5,  5)  0.4366E-10 (  1,  4,  6)


                                          ================================================
                                                         TIME STEP NO.  045
                                          ================================================

 FROM TIME =   45.000     TO    46.000    


                    "THKSAT          " FLOW TERMS FOR TIME STEP 45, STRESS PERIOD  2 READ UNFORMATTED ON UNIT 10
                    --------------------------------------------------------------------------------------------

                    "QXX             " FLOW TERMS FOR TIME STEP 45, STRESS PERIOD  2 READ UNFORMATTED ON UNIT 10
                    --------------------------------------------------------------------------------------------

                    "QYY             " FLOW TERMS FOR TIME STEP 45, STRESS PERIOD  2 READ UNFORMATTED ON UNIT 10
                    --------------------------------------------------------------------------------------------

                    "QZZ             " FLOW TERMS FOR TIME STEP 45, STRESS PERIOD  2 READ UNFORMATTED ON UNIT 10
                    --------------------------------------------------------------------------------------------

                    "STO             " FLOW TERMS FOR TIME STEP 45, STRESS PERIOD  2 READ UNFORMATTED ON UNIT 10
                    --------------------------------------------------------------------------------------------

 MAXIMUM STEPSIZE DURING WHICH ANY PARTICLE CANNOT MOVE MORE THAN ONE CELL
 =  844.4    (WHEN MIN. R.F.=1)  AT K=   2, I=   5, J=   5

 MAXIMUM STEPSIZE WHICH MEETS STABILITY CRITERION OF THE ADVECTION TERM
 (FOR PURE FINITE-DIFFERENCE OPTION, MIXELM=0) 
 =  270.6    (WHEN MIN. R.F.=1)  AT K=   2, I=   5, J=   5

                    "CNH             " FLOW TERMS FOR TIME STEP 45, STRESS PERIOD  2 READ UNFORMATTED ON UNIT 10
                    --------------------------------------------------------------------------------------------

                    "WEL             " FLOW TERMS FOR TIME STEP 45, STRESS PERIOD  2 READ UNFORMATTED ON UNIT 10
                    --------------------------------------------------------------------------------------------

                    "GHB             " FLOW TERMS FOR TIME STEP 45, STRESS PERIOD  2 READ UNFORMATTED ON UNIT 10
                    --------------------------------------------------------------------------------------------


 TOTAL NUMBER OF POINT SOURCES/SINKS PRESENT IN THE FLOW MODEL =    41

 MAXIMUM STEPSIZE WHICH MEETS STABILITY CRITERION OF THE SINK & SOURCE TERM
 =  180.0    (WHEN MIN. R.F.=1)  AT K=   1, I=   5, J=   5

 MAXIMUM STEPSIZE WHICH MEETS STABILITY CRITERION OF THE DISPERSION TERM
 =  534.8    (WHEN MIN. R.F.=1)  AT K=   1, I=   5, J=   5


     1 CALLS TO GCG PACKAGE FOR TRANSPORT TIME STEP   1 IN FLOW TIME STEP  45 STRESS PERIOD   2
     2 TOTAL ITERATIONS
  MAXIMUM CONCENTRATION CHANGES FOR EACH ITERATION:
  MAX. CHANGE LAYER,ROW,COL MAX. CHANGE LAYER,ROW,COL MAX. CHANGE LAYER,ROW,COL MAX. CHANGE LAYER,ROW,COL MAX. CHANGE LAYER,ROW,COL
 ------------------------------------------------------------------------------------------------------------------------------------
   0.1949E-01 (  1,  5,  5)  0.4366E-10 (  1,  4,  6)


                                          ================================================
                                                         TIME STEP NO.  046
                                          ================================================

 FROM TIME =   46.000     TO    47.000    


                    "THKSAT          " FLOW TERMS FOR TIME STEP 46, STRESS PERIOD  2 READ UNFORMATTED ON UNIT 10
                    --------------------------------------------------------------------------------------------

                    "QXX             " FLOW TERMS FOR TIME STEP 46, STRESS PERIOD  2 READ UNFORMATTED ON UNIT 10
                    --------------------------------------------------------------------------------------------

                    "QYY             " FLOW TERMS FOR TIME STEP 46, STRESS PERIOD  2 READ UNFORMATTED ON UNIT 10
                    --------------------------------------------------------------------------------------------

                    "QZZ             " FLOW TERMS FOR TIME STEP 46, STRESS PERIOD  2 READ UNFORMATTED ON UNIT 10
                    --------------------------------------------------------------------------------------------

                    "STO             " FLOW TERMS FOR TIME STEP 46, STRESS PERIOD  2 READ UNFORMATTED ON UNIT 10
                    --------------------------------------------------------------------------------------------

 MAXIMUM STEPSIZE DURING WHICH ANY PARTICLE CANNOT MOVE MORE THAN ONE CELL
 =  844.4    (WHEN MIN. R.F.=1)  AT K=   2, I=   5, J=   5

 MAXIMUM STEPSIZE WHICH MEETS STABILITY CRITERION OF THE ADVECTION TERM
 (FOR PURE FINITE-DIFFERENCE OPTION, MIXELM=0) 
 =  270.4    (WHEN MIN. R.F.=1)  AT K=   2, I=   5, J=   5

                    "CNH             " FLOW TERMS FOR TIME STEP 46, STRESS PERIOD  2 READ UNFORMATTED ON UNIT 10
                    --------------------------------------------------------------------------------------------

                    "WEL             " FLOW TERMS FOR TIME STEP 46, STRESS PERIOD  2 READ UNFORMATTED ON UNIT 10
                    --------------------------------------------------------------------------------------------

                    "GHB             " FLOW TERMS FOR TIME STEP 46, STRESS PERIOD  2 READ UNFORMATTED ON UNIT 10
                    --------------------------------------------------------------------------------------------


 TOTAL NUMBER OF POINT SOURCES/SINKS PRESENT IN THE FLOW MODEL =    41

 MAXIMUM STEPSIZE WHICH MEETS STABILITY CRITERION OF THE SINK & SOURCE TERM
 =  180.0    (WHEN MIN. R.F.=1)  AT K=   1, I=   5, J=   5

 MAXIMUM STEPSIZE WHICH MEETS STABILITY CRITERION OF THE DISPERSION TERM
 =  534.9    (WHEN MIN. R.F.=1)  AT K=   1, I=   5, J=   5


     1 CALLS TO GCG PACKAGE FOR TRANSPORT TIME STEP   1 IN FLOW TIME STEP  46 STRESS PERIOD   2
     2 TOTAL ITERATIONS
  MAXIMUM CONCENTRATION CHANGES FOR EACH ITERATION:
  MAX. CHANGE LAYER,ROW,COL MAX. CHANGE LAYER,ROW,COL MAX. CHANGE LAYER,ROW,COL MAX. CHANGE LAYER,ROW,COL MAX. CHANGE LAYER,ROW,COL
 ------------------------------------------------------------------------------------------------------------------------------------
   0.1899E-01 (  1,  5,  5)  0.4366E-10 (  1,  4,  6)


                                          ================================================
                                                         TIME STEP NO.  047
                                          ================================================

 FROM TIME =   47.000     TO    48.000    


                    "THKSAT          " FLOW TERMS FOR TIME STEP 47, STRESS PERIOD  2 READ UNFORMATTED ON UNIT 10
                    --------------------------------------------------------------------------------------------

                    "QXX             " FLOW TERMS FOR TIME STEP 47, STRESS PERIOD  2 READ UNFORMATTED ON UNIT 10
                    --------------------------------------------------------------------------------------------

                    "QYY             " FLOW TERMS FOR TIME STEP 47, STRESS PERIOD  2 READ UNFORMATTED ON UNIT 10
                    --------------------------------------------------------------------------------------------

                    "QZZ             " FLOW TERMS FOR TIME STEP 47, STRESS PERIOD  2 READ UNFORMATTED ON UNIT 10
                    --------------------------------------------------------------------------------------------

                    "STO             " FLOW TERMS FOR TIME STEP 47, STRESS PERIOD  2 READ UNFORMATTED ON UNIT 10
                    --------------------------------------------------------------------------------------------

 MAXIMUM STEPSIZE DURING WHICH ANY PARTICLE CANNOT MOVE MORE THAN ONE CELL
 =  844.4    (WHEN MIN. R.F.=1)  AT K=   2, I=   5, J=   5

 MAXIMUM STEPSIZE WHICH MEETS STABILITY CRITERION OF THE ADVECTION TERM
 (FOR PURE FINITE-DIFFERENCE OPTION, MIXELM=0) 
 =  270.2    (WHEN MIN. R.F.=1)  AT K=   2, I=   5, J=   5

                    "CNH             " FLOW TERMS FOR TIME STEP 47, STRESS PERIOD  2 READ UNFORMATTED ON UNIT 10
                    --------------------------------------------------------------------------------------------

                    "WEL             " FLOW TERMS FOR TIME STEP 47, STRESS PERIOD  2 READ UNFORMATTED ON UNIT 10
                    --------------------------------------------------------------------------------------------

                    "GHB             " FLOW TERMS FOR TIME STEP 47, STRESS PERIOD  2 READ UNFORMATTED ON UNIT 10
                    --------------------------------------------------------------------------------------------


 TOTAL NUMBER OF POINT SOURCES/SINKS PRESENT IN THE FLOW MODEL =    41

 MAXIMUM STEPSIZE WHICH MEETS STABILITY CRITERION OF THE SINK & SOURCE TERM
 =  180.0    (WHEN MIN. R.F.=1)  AT K=   1, I=   5, J=   5

 MAXIMUM STEPSIZE WHICH MEETS STABILITY CRITERION OF THE DISPERSION TERM
 =  535.0    (WHEN MIN. R.F.=1)  AT K=   1, I=   5, J=   5


     1 CALLS TO GCG PACKAGE FOR TRANSPORT TIME STEP   1 IN FLOW TIME STEP  47 STRESS PERIOD   2
     2 TOTAL ITERATIONS
  MAXIMUM CONCENTRATION CHANGES FOR EACH ITERATION:
  MAX. CHANGE LAYER,ROW,COL MAX. CHANGE LAYER,ROW,COL MAX. CHANGE LAYER,ROW,COL MAX. CHANGE LAYER,ROW,COL MAX. CHANGE LAYER,ROW,COL
 ------------------------------------------------------------------------------------------------------------------------------------
   0.1851E-01 (  1,  5,  5)  0.4366E-10 (  1,  4,  6)


                                          ================================================
                                                         TIME STEP NO.  048
                                          ================================================

 FROM TIME =   48.000     TO    49.000    


                    "THKSAT          " FLOW TERMS FOR TIME STEP 48, STRESS PERIOD  2 READ UNFORMATTED ON UNIT 10
                    --------------------------------------------------------------------------------------------

                    "QXX             " FLOW TERMS FOR TIME STEP 48, STRESS PERIOD  2 READ UNFORMATTED ON UNIT 10
                    --------------------------------------------------------------------------------------------

                    "QYY             " FLOW TERMS FOR TIME STEP 48, STRESS PERIOD  2 READ UNFORMATTED ON UNIT 10
                    --------------------------------------------------------------------------------------------

                    "QZZ             " FLOW TERMS FOR TIME STEP 48, STRESS PERIOD  2 READ UNFORMATTED ON UNIT 10
                    --------------------------------------------------------------------------------------------

                    "STO             " FLOW TERMS FOR TIME STEP 48, STRESS PERIOD  2 READ UNFORMATTED ON UNIT 10
                    --------------------------------------------------------------------------------------------

 MAXIMUM STEPSIZE DURING WHICH ANY PARTICLE CANNOT MOVE MORE THAN ONE CELL
 =  844.4    (WHEN MIN. R.F.=1)  AT K=   2, I=   5, J=   5

 MAXIMUM STEPSIZE WHICH MEETS STABILITY CRITERION OF THE ADVECTION TERM
 (FOR PURE FINITE-DIFFERENCE OPTION, MIXELM=0) 
 =  270.1    (WHEN MIN. R.F.=1)  AT K=   2, I=   5, J=   5

                    "CNH             " FLOW TERMS FOR TIME STEP 48, STRESS PERIOD  2 READ UNFORMATTED ON UNIT 10
                    --------------------------------------------------------------------------------------------

                    "WEL             " FLOW TERMS FOR TIME STEP 48, STRESS PERIOD  2 READ UNFORMATTED ON UNIT 10
                    --------------------------------------------------------------------------------------------

                    "GHB             " FLOW TERMS FOR TIME STEP 48, STRESS PERIOD  2 READ UNFORMATTED ON UNIT 10
                    --------------------------------------------------------------------------------------------


 TOTAL NUMBER OF POINT SOURCES/SINKS PRESENT IN THE FLOW MODEL =    41

 MAXIMUM STEPSIZE WHICH MEETS STABILITY CRITERION OF THE SINK & SOURCE TERM
 =  180.0    (WHEN MIN. R.F.=1)  AT K=   1, I=   5, J=   5

 MAXIMUM STEPSIZE WHICH MEETS STABILITY CRITERION OF THE DISPERSION TERM
 =  535.2    (WHEN MIN. R.F.=1)  AT K=   1, I=   5, J=   5


     1 CALLS TO GCG PACKAGE FOR TRANSPORT TIME STEP   1 IN FLOW TIME STEP  48 STRESS PERIOD   2
     2 TOTAL ITERATIONS
  MAXIMUM CONCENTRATION CHANGES FOR EACH ITERATION:
  MAX. CHANGE LAYER,ROW,COL MAX. CHANGE LAYER,ROW,COL MAX. CHANGE LAYER,ROW,COL MAX. CHANGE LAYER,ROW,COL MAX. CHANGE LAYER,ROW,COL
 ------------------------------------------------------------------------------------------------------------------------------------
   0.1805E-01 (  1,  5,  5)  0.4366E-10 (  1,  4,  6)


                                          ================================================
                                                         TIME STEP NO.  049
                                          ================================================

 FROM TIME =   49.000     TO    50.000    


                    "THKSAT          " FLOW TERMS FOR TIME STEP 49, STRESS PERIOD  2 READ UNFORMATTED ON UNIT 10
                    --------------------------------------------------------------------------------------------

                    "QXX             " FLOW TERMS FOR TIME STEP 49, STRESS PERIOD  2 READ UNFORMATTED ON UNIT 10
                    --------------------------------------------------------------------------------------------

                    "QYY             " FLOW TERMS FOR TIME STEP 49, STRESS PERIOD  2 READ UNFORMATTED ON UNIT 10
                    --------------------------------------------------------------------------------------------

                    "QZZ             " FLOW TERMS FOR TIME STEP 49, STRESS PERIOD  2 READ UNFORMATTED ON UNIT 10
                    --------------------------------------------------------------------------------------------

                    "STO             " FLOW TERMS FOR TIME STEP 49, STRESS PERIOD  2 READ UNFORMATTED ON UNIT 10
                    --------------------------------------------------------------------------------------------

 MAXIMUM STEPSIZE DURING WHICH ANY PARTICLE CANNOT MOVE MORE THAN ONE CELL
 =  844.3    (WHEN MIN. R.F.=1)  AT K=   2, I=   5, J=   5

 MAXIMUM STEPSIZE WHICH MEETS STABILITY CRITERION OF THE ADVECTION TERM
 (FOR PURE FINITE-DIFFERENCE OPTION, MIXELM=0) 
 =  270.1    (WHEN MIN. R.F.=1)  AT K=   2, I=   5, J=   5

                    "CNH             " FLOW TERMS FOR TIME STEP 49, STRESS PERIOD  2 READ UNFORMATTED ON UNIT 10
                    --------------------------------------------------------------------------------------------

                    "WEL             " FLOW TERMS FOR TIME STEP 49, STRESS PERIOD  2 READ UNFORMATTED ON UNIT 10
                    --------------------------------------------------------------------------------------------

                    "GHB             " FLOW TERMS FOR TIME STEP 49, STRESS PERIOD  2 READ UNFORMATTED ON UNIT 10
                    --------------------------------------------------------------------------------------------


 TOTAL NUMBER OF POINT SOURCES/SINKS PRESENT IN THE FLOW MODEL =    41

 MAXIMUM STEPSIZE WHICH MEETS STABILITY CRITERION OF THE SINK & SOURCE TERM
 =  180.0    (WHEN MIN. R.F.=1)  AT K=   1, I=   5, J=   5

 MAXIMUM STEPSIZE WHICH MEETS STABILITY CRITERION OF THE DISPERSION TERM
 =  535.3    (WHEN MIN. R.F.=1)  AT K=   1, I=   5, J=   5


     1 CALLS TO GCG PACKAGE FOR TRANSPORT TIME STEP   1 IN FLOW TIME STEP  49 STRESS PERIOD   2
     2 TOTAL ITERATIONS
  MAXIMUM CONCENTRATION CHANGES FOR EACH ITERATION:
  MAX. CHANGE LAYER,ROW,COL MAX. CHANGE LAYER,ROW,COL MAX. CHANGE LAYER,ROW,COL MAX. CHANGE LAYER,ROW,COL MAX. CHANGE LAYER,ROW,COL
 ------------------------------------------------------------------------------------------------------------------------------------
   0.1762E-01 (  1,  5,  5)  0.4366E-10 (  1,  4,  6)


                                          ================================================
                                                         TIME STEP NO.  050
                                          ================================================

 FROM TIME =   50.000     TO    51.000    


                    "THKSAT          " FLOW TERMS FOR TIME STEP 50, STRESS PERIOD  2 READ UNFORMATTED ON UNIT 10
                    --------------------------------------------------------------------------------------------

                    "QXX             " FLOW TERMS FOR TIME STEP 50, STRESS PERIOD  2 READ UNFORMATTED ON UNIT 10
                    --------------------------------------------------------------------------------------------

                    "QYY             " FLOW TERMS FOR TIME STEP 50, STRESS PERIOD  2 READ UNFORMATTED ON UNIT 10
                    --------------------------------------------------------------------------------------------

                    "QZZ             " FLOW TERMS FOR TIME STEP 50, STRESS PERIOD  2 READ UNFORMATTED ON UNIT 10
                    --------------------------------------------------------------------------------------------

                    "STO             " FLOW TERMS FOR TIME STEP 50, STRESS PERIOD  2 READ UNFORMATTED ON UNIT 10
                    --------------------------------------------------------------------------------------------

 MAXIMUM STEPSIZE DURING WHICH ANY PARTICLE CANNOT MOVE MORE THAN ONE CELL
 =  844.3    (WHEN MIN. R.F.=1)  AT K=   2, I=   5, J=   5

 MAXIMUM STEPSIZE WHICH MEETS STABILITY CRITERION OF THE ADVECTION TERM
 (FOR PURE FINITE-DIFFERENCE OPTION, MIXELM=0) 
 =  270.0    (WHEN MIN. R.F.=1)  AT K=   2, I=   5, J=   5

                    "CNH             " FLOW TERMS FOR TIME STEP 50, STRESS PERIOD  2 READ UNFORMATTED ON UNIT 10
                    --------------------------------------------------------------------------------------------

                    "WEL             " FLOW TERMS FOR TIME STEP 50, STRESS PERIOD  2 READ UNFORMATTED ON UNIT 10
                    --------------------------------------------------------------------------------------------

                    "GHB             " FLOW TERMS FOR TIME STEP 50, STRESS PERIOD  2 READ UNFORMATTED ON UNIT 10
                    --------------------------------------------------------------------------------------------


 TOTAL NUMBER OF POINT SOURCES/SINKS PRESENT IN THE FLOW MODEL =    41

 MAXIMUM STEPSIZE WHICH MEETS STABILITY CRITERION OF THE SINK & SOURCE TERM
 =  180.0    (WHEN MIN. R.F.=1)  AT K=   1, I=   5, J=   5

 MAXIMUM STEPSIZE WHICH MEETS STABILITY CRITERION OF THE DISPERSION TERM
 =  535.4    (WHEN MIN. R.F.=1)  AT K=   1, I=   5, J=   5


     1 CALLS TO GCG PACKAGE FOR TRANSPORT TIME STEP   1 IN FLOW TIME STEP  50 STRESS PERIOD   2
     2 TOTAL ITERATIONS
  MAXIMUM CONCENTRATION CHANGES FOR EACH ITERATION:
  MAX. CHANGE LAYER,ROW,COL MAX. CHANGE LAYER,ROW,COL MAX. CHANGE LAYER,ROW,COL MAX. CHANGE LAYER,ROW,COL MAX. CHANGE LAYER,ROW,COL
 ------------------------------------------------------------------------------------------------------------------------------------
   0.1720E-01 (  1,  5,  5)  0.4366E-10 (  1,  4,  6)


                                          ================================================
                                                         TIME STEP NO.  051
                                          ================================================

 FROM TIME =   51.000     TO    52.000    


                    "THKSAT          " FLOW TERMS FOR TIME STEP 51, STRESS PERIOD  2 READ UNFORMATTED ON UNIT 10
                    --------------------------------------------------------------------------------------------

                    "QXX             " FLOW TERMS FOR TIME STEP 51, STRESS PERIOD  2 READ UNFORMATTED ON UNIT 10
                    --------------------------------------------------------------------------------------------

                    "QYY             " FLOW TERMS FOR TIME STEP 51, STRESS PERIOD  2 READ UNFORMATTED ON UNIT 10
                    --------------------------------------------------------------------------------------------

                    "QZZ             " FLOW TERMS FOR TIME STEP 51, STRESS PERIOD  2 READ UNFORMATTED ON UNIT 10
                    --------------------------------------------------------------------------------------------

                    "STO             " FLOW TERMS FOR TIME STEP 51, STRESS PERIOD  2 READ UNFORMATTED ON UNIT 10
                    --------------------------------------------------------------------------------------------

 MAXIMUM STEPSIZE DURING WHICH ANY PARTICLE CANNOT MOVE MORE THAN ONE CELL
 =  844.3    (WHEN MIN. R.F.=1)  AT K=   2, I=   5, J=   5

 MAXIMUM STEPSIZE WHICH MEETS STABILITY CRITERION OF THE ADVECTION TERM
 (FOR PURE FINITE-DIFFERENCE OPTION, MIXELM=0) 
 =  269.9    (WHEN MIN. R.F.=1)  AT K=   2, I=   5, J=   5

                    "CNH             " FLOW TERMS FOR TIME STEP 51, STRESS PERIOD  2 READ UNFORMATTED ON UNIT 10
                    --------------------------------------------------------------------------------------------

                    "WEL             " FLOW TERMS FOR TIME STEP 51, STRESS PERIOD  2 READ UNFORMATTED ON UNIT 10
                    --------------------------------------------------------------------------------------------

                    "GHB             " FLOW TERMS FOR TIME STEP 51, STRESS PERIOD  2 READ UNFORMATTED ON UNIT 10
                    --------------------------------------------------------------------------------------------


 TOTAL NUMBER OF POINT SOURCES/SINKS PRESENT IN THE FLOW MODEL =    41

 MAXIMUM STEPSIZE WHICH MEETS STABILITY CRITERION OF THE SINK & SOURCE TERM
 =  180.0    (WHEN MIN. R.F.=1)  AT K=   1, I=   5, J=   5

 MAXIMUM STEPSIZE WHICH MEETS STABILITY CRITERION OF THE DISPERSION TERM
 =  535.4    (WHEN MIN. R.F.=1)  AT K=   1, I=   5, J=   5


     1 CALLS TO GCG PACKAGE FOR TRANSPORT TIME STEP   1 IN FLOW TIME STEP  51 STRESS PERIOD   2
     2 TOTAL ITERATIONS
  MAXIMUM CONCENTRATION CHANGES FOR EACH ITERATION:
  MAX. CHANGE LAYER,ROW,COL MAX. CHANGE LAYER,ROW,COL MAX. CHANGE LAYER,ROW,COL MAX. CHANGE LAYER,ROW,COL MAX. CHANGE LAYER,ROW,COL
 ------------------------------------------------------------------------------------------------------------------------------------
   0.1679E-01 (  1,  5,  5)  0.4366E-10 (  1,  4,  6)


                                          ================================================
                                                         TIME STEP NO.  052
                                          ================================================

 FROM TIME =   52.000     TO    53.000    


                    "THKSAT          " FLOW TERMS FOR TIME STEP 52, STRESS PERIOD  2 READ UNFORMATTED ON UNIT 10
                    --------------------------------------------------------------------------------------------

                    "QXX             " FLOW TERMS FOR TIME STEP 52, STRESS PERIOD  2 READ UNFORMATTED ON UNIT 10
                    --------------------------------------------------------------------------------------------

                    "QYY             " FLOW TERMS FOR TIME STEP 52, STRESS PERIOD  2 READ UNFORMATTED ON UNIT 10
                    --------------------------------------------------------------------------------------------

                    "QZZ             " FLOW TERMS FOR TIME STEP 52, STRESS PERIOD  2 READ UNFORMATTED ON UNIT 10
                    --------------------------------------------------------------------------------------------

                    "STO             " FLOW TERMS FOR TIME STEP 52, STRESS PERIOD  2 READ UNFORMATTED ON UNIT 10
                    --------------------------------------------------------------------------------------------

 MAXIMUM STEPSIZE DURING WHICH ANY PARTICLE CANNOT MOVE MORE THAN ONE CELL
 =  844.3    (WHEN MIN. R.F.=1)  AT K=   2, I=   5, J=   5

 MAXIMUM STEPSIZE WHICH MEETS STABILITY CRITERION OF THE ADVECTION TERM
 (FOR PURE FINITE-DIFFERENCE OPTION, MIXELM=0) 
 =  269.7    (WHEN MIN. R.F.=1)  AT K=   2, I=   5, J=   5

                    "CNH             " FLOW TERMS FOR TIME STEP 52, STRESS PERIOD  2 READ UNFORMATTED ON UNIT 10
                    --------------------------------------------------------------------------------------------

                    "WEL             " FLOW TERMS FOR TIME STEP 52, STRESS PERIOD  2 READ UNFORMATTED ON UNIT 10
                    --------------------------------------------------------------------------------------------

                    "GHB             " FLOW TERMS FOR TIME STEP 52, STRESS PERIOD  2 READ UNFORMATTED ON UNIT 10
                    --------------------------------------------------------------------------------------------


 TOTAL NUMBER OF POINT SOURCES/SINKS PRESENT IN THE FLOW MODEL =    41

 MAXIMUM STEPSIZE WHICH MEETS STABILITY CRITERION OF THE SINK & SOURCE TERM
 =  180.0    (WHEN MIN. R.F.=1)  AT K=   1, I=   5, J=   5

 MAXIMUM STEPSIZE WHICH MEETS STABILITY CRITERION OF THE DISPERSION TERM
 =  535.5    (WHEN MIN. R.F.=1)  AT K=   1, I=   5, J=   5


     1 CALLS TO GCG PACKAGE FOR TRANSPORT TIME STEP   1 IN FLOW TIME STEP  52 STRESS PERIOD   2
     2 TOTAL ITERATIONS
  MAXIMUM CONCENTRATION CHANGES FOR EACH ITERATION:
  MAX. CHANGE LAYER,ROW,COL MAX. CHANGE LAYER,ROW,COL MAX. CHANGE LAYER,ROW,COL MAX. CHANGE LAYER,ROW,COL MAX. CHANGE LAYER,ROW,COL
 ------------------------------------------------------------------------------------------------------------------------------------
   0.1641E-01 (  1,  5,  5)  0.4366E-10 (  1,  4,  6)


                                          ================================================
                                                         TIME STEP NO.  053
                                          ================================================

 FROM TIME =   53.000     TO    54.000    


                    "THKSAT          " FLOW TERMS FOR TIME STEP 53, STRESS PERIOD  2 READ UNFORMATTED ON UNIT 10
                    --------------------------------------------------------------------------------------------

                    "QXX             " FLOW TERMS FOR TIME STEP 53, STRESS PERIOD  2 READ UNFORMATTED ON UNIT 10
                    --------------------------------------------------------------------------------------------

                    "QYY             " FLOW TERMS FOR TIME STEP 53, STRESS PERIOD  2 READ UNFORMATTED ON UNIT 10
                    --------------------------------------------------------------------------------------------

                    "QZZ             " FLOW TERMS FOR TIME STEP 53, STRESS PERIOD  2 READ UNFORMATTED ON UNIT 10
                    --------------------------------------------------------------------------------------------

                    "STO             " FLOW TERMS FOR TIME STEP 53, STRESS PERIOD  2 READ UNFORMATTED ON UNIT 10
                    --------------------------------------------------------------------------------------------

 MAXIMUM STEPSIZE DURING WHICH ANY PARTICLE CANNOT MOVE MORE THAN ONE CELL
 =  844.2    (WHEN MIN. R.F.=1)  AT K=   2, I=   5, J=   5

 MAXIMUM STEPSIZE WHICH MEETS STABILITY CRITERION OF THE ADVECTION TERM
 (FOR PURE FINITE-DIFFERENCE OPTION, MIXELM=0) 
 =  269.6    (WHEN MIN. R.F.=1)  AT K=   2, I=   5, J=   5

                    "CNH             " FLOW TERMS FOR TIME STEP 53, STRESS PERIOD  2 READ UNFORMATTED ON UNIT 10
                    --------------------------------------------------------------------------------------------

                    "WEL             " FLOW TERMS FOR TIME STEP 53, STRESS PERIOD  2 READ UNFORMATTED ON UNIT 10
                    --------------------------------------------------------------------------------------------

                    "GHB             " FLOW TERMS FOR TIME STEP 53, STRESS PERIOD  2 READ UNFORMATTED ON UNIT 10
                    --------------------------------------------------------------------------------------------


 TOTAL NUMBER OF POINT SOURCES/SINKS PRESENT IN THE FLOW MODEL =    41

 MAXIMUM STEPSIZE WHICH MEETS STABILITY CRITERION OF THE SINK & SOURCE TERM
 =  180.0    (WHEN MIN. R.F.=1)  AT K=   1, I=   5, J=   5

 MAXIMUM STEPSIZE WHICH MEETS STABILITY CRITERION OF THE DISPERSION TERM
 =  535.6    (WHEN MIN. R.F.=1)  AT K=   1, I=   5, J=   5


     1 CALLS TO GCG PACKAGE FOR TRANSPORT TIME STEP   1 IN FLOW TIME STEP  53 STRESS PERIOD   2
     2 TOTAL ITERATIONS
  MAXIMUM CONCENTRATION CHANGES FOR EACH ITERATION:
  MAX. CHANGE LAYER,ROW,COL MAX. CHANGE LAYER,ROW,COL MAX. CHANGE LAYER,ROW,COL MAX. CHANGE LAYER,ROW,COL MAX. CHANGE LAYER,ROW,COL
 ------------------------------------------------------------------------------------------------------------------------------------
   0.1603E-01 (  1,  5,  5)  0.2910E-10 (  1,  4,  6)


                                          ================================================
                                                         TIME STEP NO.  054
                                          ================================================

 FROM TIME =   54.000     TO    55.000    


                    "THKSAT          " FLOW TERMS FOR TIME STEP 54, STRESS PERIOD  2 READ UNFORMATTED ON UNIT 10
                    --------------------------------------------------------------------------------------------

                    "QXX             " FLOW TERMS FOR TIME STEP 54, STRESS PERIOD  2 READ UNFORMATTED ON UNIT 10
                    --------------------------------------------------------------------------------------------

                    "QYY             " FLOW TERMS FOR TIME STEP 54, STRESS PERIOD  2 READ UNFORMATTED ON UNIT 10
                    --------------------------------------------------------------------------------------------

                    "QZZ             " FLOW TERMS FOR TIME STEP 54, STRESS PERIOD  2 READ UNFORMATTED ON UNIT 10
                    --------------------------------------------------------------------------------------------

                    "STO             " FLOW TERMS FOR TIME STEP 54, STRESS PERIOD  2 READ UNFORMATTED ON UNIT 10
                    --------------------------------------------------------------------------------------------

 MAXIMUM STEPSIZE DURING WHICH ANY PARTICLE CANNOT MOVE MORE THAN ONE CELL
 =  844.2    (WHEN MIN. R.F.=1)  AT K=   2, I=   5, J=   5

 MAXIMUM STEPSIZE WHICH MEETS STABILITY CRITERION OF THE ADVECTION TERM
 (FOR PURE FINITE-DIFFERENCE OPTION, MIXELM=0) 
 =  269.5    (WHEN MIN. R.F.=1)  AT K=   2, I=   5, J=   5

                    "CNH             " FLOW TERMS FOR TIME STEP 54, STRESS PERIOD  2 READ UNFORMATTED ON UNIT 10
                    --------------------------------------------------------------------------------------------

                    "WEL             " FLOW TERMS FOR TIME STEP 54, STRESS PERIOD  2 READ UNFORMATTED ON UNIT 10
                    --------------------------------------------------------------------------------------------

                    "GHB             " FLOW TERMS FOR TIME STEP 54, STRESS PERIOD  2 READ UNFORMATTED ON UNIT 10
                    --------------------------------------------------------------------------------------------


 TOTAL NUMBER OF POINT SOURCES/SINKS PRESENT IN THE FLOW MODEL =    41

 MAXIMUM STEPSIZE WHICH MEETS STABILITY CRITERION OF THE SINK & SOURCE TERM
 =  180.0    (WHEN MIN. R.F.=1)  AT K=   1, I=   5, J=   5

 MAXIMUM STEPSIZE WHICH MEETS STABILITY CRITERION OF THE DISPERSION TERM
 =  535.7    (WHEN MIN. R.F.=1)  AT K=   1, I=   5, J=   5


     1 CALLS TO GCG PACKAGE FOR TRANSPORT TIME STEP   1 IN FLOW TIME STEP  54 STRESS PERIOD   2
     2 TOTAL ITERATIONS
  MAXIMUM CONCENTRATION CHANGES FOR EACH ITERATION:
  MAX. CHANGE LAYER,ROW,COL MAX. CHANGE LAYER,ROW,COL MAX. CHANGE LAYER,ROW,COL MAX. CHANGE LAYER,ROW,COL MAX. CHANGE LAYER,ROW,COL
 ------------------------------------------------------------------------------------------------------------------------------------
   0.1568E-01 (  1,  5,  5)  0.2910E-10 (  1,  4,  6)


                                          ================================================
                                                         TIME STEP NO.  055
                                          ================================================

 FROM TIME =   55.000     TO    56.000    


                    "THKSAT          " FLOW TERMS FOR TIME STEP 55, STRESS PERIOD  2 READ UNFORMATTED ON UNIT 10
                    --------------------------------------------------------------------------------------------

                    "QXX             " FLOW TERMS FOR TIME STEP 55, STRESS PERIOD  2 READ UNFORMATTED ON UNIT 10
                    --------------------------------------------------------------------------------------------

                    "QYY             " FLOW TERMS FOR TIME STEP 55, STRESS PERIOD  2 READ UNFORMATTED ON UNIT 10
                    --------------------------------------------------------------------------------------------

                    "QZZ             " FLOW TERMS FOR TIME STEP 55, STRESS PERIOD  2 READ UNFORMATTED ON UNIT 10
                    --------------------------------------------------------------------------------------------

                    "STO             " FLOW TERMS FOR TIME STEP 55, STRESS PERIOD  2 READ UNFORMATTED ON UNIT 10
                    --------------------------------------------------------------------------------------------

 MAXIMUM STEPSIZE DURING WHICH ANY PARTICLE CANNOT MOVE MORE THAN ONE CELL
 =  844.2    (WHEN MIN. R.F.=1)  AT K=   2, I=   5, J=   5

 MAXIMUM STEPSIZE WHICH MEETS STABILITY CRITERION OF THE ADVECTION TERM
 (FOR PURE FINITE-DIFFERENCE OPTION, MIXELM=0) 
 =  269.3    (WHEN MIN. R.F.=1)  AT K=   2, I=   5, J=   5

                    "CNH             " FLOW TERMS FOR TIME STEP 55, STRESS PERIOD  2 READ UNFORMATTED ON UNIT 10
                    --------------------------------------------------------------------------------------------

                    "WEL             " FLOW TERMS FOR TIME STEP 55, STRESS PERIOD  2 READ UNFORMATTED ON UNIT 10
                    --------------------------------------------------------------------------------------------

                    "GHB             " FLOW TERMS FOR TIME STEP 55, STRESS PERIOD  2 READ UNFORMATTED ON UNIT 10
                    --------------------------------------------------------------------------------------------


 TOTAL NUMBER OF POINT SOURCES/SINKS PRESENT IN THE FLOW MODEL =    41

 MAXIMUM STEPSIZE WHICH MEETS STABILITY CRITERION OF THE SINK & SOURCE TERM
 =  180.0    (WHEN MIN. R.F.=1)  AT K=   1, I=   5, J=   5

 MAXIMUM STEPSIZE WHICH MEETS STABILITY CRITERION OF THE DISPERSION TERM
 =  535.8    (WHEN MIN. R.F.=1)  AT K=   1, I=   5, J=   5


     1 CALLS TO GCG PACKAGE FOR TRANSPORT TIME STEP   1 IN FLOW TIME STEP  55 STRESS PERIOD   2
     2 TOTAL ITERATIONS
  MAXIMUM CONCENTRATION CHANGES FOR EACH ITERATION:
  MAX. CHANGE LAYER,ROW,COL MAX. CHANGE LAYER,ROW,COL MAX. CHANGE LAYER,ROW,COL MAX. CHANGE LAYER,ROW,COL MAX. CHANGE LAYER,ROW,COL
 ------------------------------------------------------------------------------------------------------------------------------------
   0.1533E-01 (  1,  5,  5)  0.2910E-10 (  1,  4,  6)


                                          ================================================
                                                         TIME STEP NO.  056
                                          ================================================

 FROM TIME =   56.000     TO    57.000    


                    "THKSAT          " FLOW TERMS FOR TIME STEP 56, STRESS PERIOD  2 READ UNFORMATTED ON UNIT 10
                    --------------------------------------------------------------------------------------------

                    "QXX             " FLOW TERMS FOR TIME STEP 56, STRESS PERIOD  2 READ UNFORMATTED ON UNIT 10
                    --------------------------------------------------------------------------------------------

                    "QYY             " FLOW TERMS FOR TIME STEP 56, STRESS PERIOD  2 READ UNFORMATTED ON UNIT 10
                    --------------------------------------------------------------------------------------------

                    "QZZ             " FLOW TERMS FOR TIME STEP 56, STRESS PERIOD  2 READ UNFORMATTED ON UNIT 10
                    --------------------------------------------------------------------------------------------

                    "STO             " FLOW TERMS FOR TIME STEP 56, STRESS PERIOD  2 READ UNFORMATTED ON UNIT 10
                    --------------------------------------------------------------------------------------------

 MAXIMUM STEPSIZE DURING WHICH ANY PARTICLE CANNOT MOVE MORE THAN ONE CELL
 =  844.2    (WHEN MIN. R.F.=1)  AT K=   2, I=   5, J=   5

 MAXIMUM STEPSIZE WHICH MEETS STABILITY CRITERION OF THE ADVECTION TERM
 (FOR PURE FINITE-DIFFERENCE OPTION, MIXELM=0) 
 =  269.2    (WHEN MIN. R.F.=1)  AT K=   2, I=   5, J=   5

                    "CNH             " FLOW TERMS FOR TIME STEP 56, STRESS PERIOD  2 READ UNFORMATTED ON UNIT 10
                    --------------------------------------------------------------------------------------------

                    "WEL             " FLOW TERMS FOR TIME STEP 56, STRESS PERIOD  2 READ UNFORMATTED ON UNIT 10
                    --------------------------------------------------------------------------------------------

                    "GHB             " FLOW TERMS FOR TIME STEP 56, STRESS PERIOD  2 READ UNFORMATTED ON UNIT 10
                    --------------------------------------------------------------------------------------------


 TOTAL NUMBER OF POINT SOURCES/SINKS PRESENT IN THE FLOW MODEL =    41

 MAXIMUM STEPSIZE WHICH MEETS STABILITY CRITERION OF THE SINK & SOURCE TERM
 =  180.0    (WHEN MIN. R.F.=1)  AT K=   1, I=   5, J=   5

 MAXIMUM STEPSIZE WHICH MEETS STABILITY CRITERION OF THE DISPERSION TERM
 =  535.9    (WHEN MIN. R.F.=1)  AT K=   1, I=   5, J=   5


     1 CALLS TO GCG PACKAGE FOR TRANSPORT TIME STEP   1 IN FLOW TIME STEP  56 STRESS PERIOD   2
     2 TOTAL ITERATIONS
  MAXIMUM CONCENTRATION CHANGES FOR EACH ITERATION:
  MAX. CHANGE LAYER,ROW,COL MAX. CHANGE LAYER,ROW,COL MAX. CHANGE LAYER,ROW,COL MAX. CHANGE LAYER,ROW,COL MAX. CHANGE LAYER,ROW,COL
 ------------------------------------------------------------------------------------------------------------------------------------
   0.1500E-01 (  1,  5,  5)  0.2910E-10 (  1,  4,  6)


                                          ================================================
                                                         TIME STEP NO.  057
                                          ================================================

 FROM TIME =   57.000     TO    58.000    


                    "THKSAT          " FLOW TERMS FOR TIME STEP 57, STRESS PERIOD  2 READ UNFORMATTED ON UNIT 10
                    --------------------------------------------------------------------------------------------

                    "QXX             " FLOW TERMS FOR TIME STEP 57, STRESS PERIOD  2 READ UNFORMATTED ON UNIT 10
                    --------------------------------------------------------------------------------------------

                    "QYY             " FLOW TERMS FOR TIME STEP 57, STRESS PERIOD  2 READ UNFORMATTED ON UNIT 10
                    --------------------------------------------------------------------------------------------

                    "QZZ             " FLOW TERMS FOR TIME STEP 57, STRESS PERIOD  2 READ UNFORMATTED ON UNIT 10
                    --------------------------------------------------------------------------------------------

                    "STO             " FLOW TERMS FOR TIME STEP 57, STRESS PERIOD  2 READ UNFORMATTED ON UNIT 10
                    --------------------------------------------------------------------------------------------

 MAXIMUM STEPSIZE DURING WHICH ANY PARTICLE CANNOT MOVE MORE THAN ONE CELL
 =  844.2    (WHEN MIN. R.F.=1)  AT K=   2, I=   5, J=   5

 MAXIMUM STEPSIZE WHICH MEETS STABILITY CRITERION OF THE ADVECTION TERM
 (FOR PURE FINITE-DIFFERENCE OPTION, MIXELM=0) 
 =  269.1    (WHEN MIN. R.F.=1)  AT K=   2, I=   5, J=   5

                    "CNH             " FLOW TERMS FOR TIME STEP 57, STRESS PERIOD  2 READ UNFORMATTED ON UNIT 10
                    --------------------------------------------------------------------------------------------

                    "WEL             " FLOW TERMS FOR TIME STEP 57, STRESS PERIOD  2 READ UNFORMATTED ON UNIT 10
                    --------------------------------------------------------------------------------------------

                    "GHB             " FLOW TERMS FOR TIME STEP 57, STRESS PERIOD  2 READ UNFORMATTED ON UNIT 10
                    --------------------------------------------------------------------------------------------


 TOTAL NUMBER OF POINT SOURCES/SINKS PRESENT IN THE FLOW MODEL =    41

 MAXIMUM STEPSIZE WHICH MEETS STABILITY CRITERION OF THE SINK & SOURCE TERM
 =  180.0    (WHEN MIN. R.F.=1)  AT K=   1, I=   5, J=   5

 MAXIMUM STEPSIZE WHICH MEETS STABILITY CRITERION OF THE DISPERSION TERM
 =  536.0    (WHEN MIN. R.F.=1)  AT K=   1, I=   5, J=   5


     1 CALLS TO GCG PACKAGE FOR TRANSPORT TIME STEP   1 IN FLOW TIME STEP  57 STRESS PERIOD   2
     2 TOTAL ITERATIONS
  MAXIMUM CONCENTRATION CHANGES FOR EACH ITERATION:
  MAX. CHANGE LAYER,ROW,COL MAX. CHANGE LAYER,ROW,COL MAX. CHANGE LAYER,ROW,COL MAX. CHANGE LAYER,ROW,COL MAX. CHANGE LAYER,ROW,COL
 ------------------------------------------------------------------------------------------------------------------------------------
   0.1468E-01 (  1,  5,  5)  0.2910E-10 (  1,  4,  6)


                                          ================================================
                                                         TIME STEP NO.  058
                                          ================================================

 FROM TIME =   58.000     TO    59.000    


                    "THKSAT          " FLOW TERMS FOR TIME STEP 58, STRESS PERIOD  2 READ UNFORMATTED ON UNIT 10
                    --------------------------------------------------------------------------------------------

                    "QXX             " FLOW TERMS FOR TIME STEP 58, STRESS PERIOD  2 READ UNFORMATTED ON UNIT 10
                    --------------------------------------------------------------------------------------------

                    "QYY             " FLOW TERMS FOR TIME STEP 58, STRESS PERIOD  2 READ UNFORMATTED ON UNIT 10
                    --------------------------------------------------------------------------------------------

                    "QZZ             " FLOW TERMS FOR TIME STEP 58, STRESS PERIOD  2 READ UNFORMATTED ON UNIT 10
                    --------------------------------------------------------------------------------------------

                    "STO             " FLOW TERMS FOR TIME STEP 58, STRESS PERIOD  2 READ UNFORMATTED ON UNIT 10
                    --------------------------------------------------------------------------------------------

 MAXIMUM STEPSIZE DURING WHICH ANY PARTICLE CANNOT MOVE MORE THAN ONE CELL
 =  844.2    (WHEN MIN. R.F.=1)  AT K=   2, I=   5, J=   5

 MAXIMUM STEPSIZE WHICH MEETS STABILITY CRITERION OF THE ADVECTION TERM
 (FOR PURE FINITE-DIFFERENCE OPTION, MIXELM=0) 
 =  268.9    (WHEN MIN. R.F.=1)  AT K=   2, I=   5, J=   5

                    "CNH             " FLOW TERMS FOR TIME STEP 58, STRESS PERIOD  2 READ UNFORMATTED ON UNIT 10
                    --------------------------------------------------------------------------------------------

                    "WEL             " FLOW TERMS FOR TIME STEP 58, STRESS PERIOD  2 READ UNFORMATTED ON UNIT 10
                    --------------------------------------------------------------------------------------------

                    "GHB             " FLOW TERMS FOR TIME STEP 58, STRESS PERIOD  2 READ UNFORMATTED ON UNIT 10
                    --------------------------------------------------------------------------------------------


 TOTAL NUMBER OF POINT SOURCES/SINKS PRESENT IN THE FLOW MODEL =    41

 MAXIMUM STEPSIZE WHICH MEETS STABILITY CRITERION OF THE SINK & SOURCE TERM
 =  180.0    (WHEN MIN. R.F.=1)  AT K=   1, I=   5, J=   5

 MAXIMUM STEPSIZE WHICH MEETS STABILITY CRITERION OF THE DISPERSION TERM
 =  536.2    (WHEN MIN. R.F.=1)  AT K=   1, I=   5, J=   5


     1 CALLS TO GCG PACKAGE FOR TRANSPORT TIME STEP   1 IN FLOW TIME STEP  58 STRESS PERIOD   2
     2 TOTAL ITERATIONS
  MAXIMUM CONCENTRATION CHANGES FOR EACH ITERATION:
  MAX. CHANGE LAYER,ROW,COL MAX. CHANGE LAYER,ROW,COL MAX. CHANGE LAYER,ROW,COL MAX. CHANGE LAYER,ROW,COL MAX. CHANGE LAYER,ROW,COL
 ------------------------------------------------------------------------------------------------------------------------------------
   0.1437E-01 (  1,  5,  5)  0.2910E-10 (  1,  4,  6)


                                          ================================================
                                                         TIME STEP NO.  059
                                          ================================================

 FROM TIME =   59.000     TO    60.000    


                    "THKSAT          " FLOW TERMS FOR TIME STEP 59, STRESS PERIOD  2 READ UNFORMATTED ON UNIT 10
                    --------------------------------------------------------------------------------------------

                    "QXX             " FLOW TERMS FOR TIME STEP 59, STRESS PERIOD  2 READ UNFORMATTED ON UNIT 10
                    --------------------------------------------------------------------------------------------

                    "QYY             " FLOW TERMS FOR TIME STEP 59, STRESS PERIOD  2 READ UNFORMATTED ON UNIT 10
                    --------------------------------------------------------------------------------------------

                    "QZZ             " FLOW TERMS FOR TIME STEP 59, STRESS PERIOD  2 READ UNFORMATTED ON UNIT 10
                    --------------------------------------------------------------------------------------------

                    "STO             " FLOW TERMS FOR TIME STEP 59, STRESS PERIOD  2 READ UNFORMATTED ON UNIT 10
                    --------------------------------------------------------------------------------------------

 MAXIMUM STEPSIZE DURING WHICH ANY PARTICLE CANNOT MOVE MORE THAN ONE CELL
 =  844.2    (WHEN MIN. R.F.=1)  AT K=   2, I=   5, J=   5

 MAXIMUM STEPSIZE WHICH MEETS STABILITY CRITERION OF THE ADVECTION TERM
 (FOR PURE FINITE-DIFFERENCE OPTION, MIXELM=0) 
 =  268.8    (WHEN MIN. R.F.=1)  AT K=   2, I=   5, J=   5

                    "CNH             " FLOW TERMS FOR TIME STEP 59, STRESS PERIOD  2 READ UNFORMATTED ON UNIT 10
                    --------------------------------------------------------------------------------------------

                    "WEL             " FLOW TERMS FOR TIME STEP 59, STRESS PERIOD  2 READ UNFORMATTED ON UNIT 10
                    --------------------------------------------------------------------------------------------

                    "GHB             " FLOW TERMS FOR TIME STEP 59, STRESS PERIOD  2 READ UNFORMATTED ON UNIT 10
                    --------------------------------------------------------------------------------------------


 TOTAL NUMBER OF POINT SOURCES/SINKS PRESENT IN THE FLOW MODEL =    41

 MAXIMUM STEPSIZE WHICH MEETS STABILITY CRITERION OF THE SINK & SOURCE TERM
 =  180.0    (WHEN MIN. R.F.=1)  AT K=   1, I=   5, J=   5

 MAXIMUM STEPSIZE WHICH MEETS STABILITY CRITERION OF THE DISPERSION TERM
 =  536.3    (WHEN MIN. R.F.=1)  AT K=   1, I=   5, J=   5


     1 CALLS TO GCG PACKAGE FOR TRANSPORT TIME STEP   1 IN FLOW TIME STEP  59 STRESS PERIOD   2
     2 TOTAL ITERATIONS
  MAXIMUM CONCENTRATION CHANGES FOR EACH ITERATION:
  MAX. CHANGE LAYER,ROW,COL MAX. CHANGE LAYER,ROW,COL MAX. CHANGE LAYER,ROW,COL MAX. CHANGE LAYER,ROW,COL MAX. CHANGE LAYER,ROW,COL
 ------------------------------------------------------------------------------------------------------------------------------------
   0.1408E-01 (  1,  5,  5)  0.2910E-10 (  1,  4,  6)


                                          ================================================
                                                         TIME STEP NO.  060
                                          ================================================

 FROM TIME =   60.000     TO    61.000    


                    "THKSAT          " FLOW TERMS FOR TIME STEP 60, STRESS PERIOD  2 READ UNFORMATTED ON UNIT 10
                    --------------------------------------------------------------------------------------------

                    "QXX             " FLOW TERMS FOR TIME STEP 60, STRESS PERIOD  2 READ UNFORMATTED ON UNIT 10
                    --------------------------------------------------------------------------------------------

                    "QYY             " FLOW TERMS FOR TIME STEP 60, STRESS PERIOD  2 READ UNFORMATTED ON UNIT 10
                    --------------------------------------------------------------------------------------------

                    "QZZ             " FLOW TERMS FOR TIME STEP 60, STRESS PERIOD  2 READ UNFORMATTED ON UNIT 10
                    --------------------------------------------------------------------------------------------

                    "STO             " FLOW TERMS FOR TIME STEP 60, STRESS PERIOD  2 READ UNFORMATTED ON UNIT 10
                    --------------------------------------------------------------------------------------------

 MAXIMUM STEPSIZE DURING WHICH ANY PARTICLE CANNOT MOVE MORE THAN ONE CELL
 =  844.2    (WHEN MIN. R.F.=1)  AT K=   2, I=   5, J=   5

 MAXIMUM STEPSIZE WHICH MEETS STABILITY CRITERION OF THE ADVECTION TERM
 (FOR PURE FINITE-DIFFERENCE OPTION, MIXELM=0) 
 =  268.7    (WHEN MIN. R.F.=1)  AT K=   2, I=   5, J=   5

                    "CNH             " FLOW TERMS FOR TIME STEP 60, STRESS PERIOD  2 READ UNFORMATTED ON UNIT 10
                    --------------------------------------------------------------------------------------------

                    "WEL             " FLOW TERMS FOR TIME STEP 60, STRESS PERIOD  2 READ UNFORMATTED ON UNIT 10
                    --------------------------------------------------------------------------------------------

                    "GHB             " FLOW TERMS FOR TIME STEP 60, STRESS PERIOD  2 READ UNFORMATTED ON UNIT 10
                    --------------------------------------------------------------------------------------------


 TOTAL NUMBER OF POINT SOURCES/SINKS PRESENT IN THE FLOW MODEL =    41

 MAXIMUM STEPSIZE WHICH MEETS STABILITY CRITERION OF THE SINK & SOURCE TERM
 =  180.0    (WHEN MIN. R.F.=1)  AT K=   1, I=   5, J=   5

 MAXIMUM STEPSIZE WHICH MEETS STABILITY CRITERION OF THE DISPERSION TERM
 =  536.4    (WHEN MIN. R.F.=1)  AT K=   1, I=   5, J=   5


     1 CALLS TO GCG PACKAGE FOR TRANSPORT TIME STEP   1 IN FLOW TIME STEP  60 STRESS PERIOD   2
     2 TOTAL ITERATIONS
  MAXIMUM CONCENTRATION CHANGES FOR EACH ITERATION:
  MAX. CHANGE LAYER,ROW,COL MAX. CHANGE LAYER,ROW,COL MAX. CHANGE LAYER,ROW,COL MAX. CHANGE LAYER,ROW,COL MAX. CHANGE LAYER,ROW,COL
 ------------------------------------------------------------------------------------------------------------------------------------
   0.1379E-01 (  1,  5,  5)  0.2910E-10 (  1,  4,  6)


                                          ================================================
                                                         TIME STEP NO.  061
                                          ================================================

 FROM TIME =   61.000     TO    62.000    


                    "THKSAT          " FLOW TERMS FOR TIME STEP 61, STRESS PERIOD  2 READ UNFORMATTED ON UNIT 10
                    --------------------------------------------------------------------------------------------

                    "QXX             " FLOW TERMS FOR TIME STEP 61, STRESS PERIOD  2 READ UNFORMATTED ON UNIT 10
                    --------------------------------------------------------------------------------------------

                    "QYY             " FLOW TERMS FOR TIME STEP 61, STRESS PERIOD  2 READ UNFORMATTED ON UNIT 10
                    --------------------------------------------------------------------------------------------

                    "QZZ             " FLOW TERMS FOR TIME STEP 61, STRESS PERIOD  2 READ UNFORMATTED ON UNIT 10
                    --------------------------------------------------------------------------------------------

                    "STO             " FLOW TERMS FOR TIME STEP 61, STRESS PERIOD  2 READ UNFORMATTED ON UNIT 10
                    --------------------------------------------------------------------------------------------

 MAXIMUM STEPSIZE DURING WHICH ANY PARTICLE CANNOT MOVE MORE THAN ONE CELL
 =  844.2    (WHEN MIN. R.F.=1)  AT K=   2, I=   5, J=   5

 MAXIMUM STEPSIZE WHICH MEETS STABILITY CRITERION OF THE ADVECTION TERM
 (FOR PURE FINITE-DIFFERENCE OPTION, MIXELM=0) 
 =  268.5    (WHEN MIN. R.F.=1)  AT K=   2, I=   5, J=   5

                    "CNH             " FLOW TERMS FOR TIME STEP 61, STRESS PERIOD  2 READ UNFORMATTED ON UNIT 10
                    --------------------------------------------------------------------------------------------

                    "WEL             " FLOW TERMS FOR TIME STEP 61, STRESS PERIOD  2 READ UNFORMATTED ON UNIT 10
                    --------------------------------------------------------------------------------------------

                    "GHB             " FLOW TERMS FOR TIME STEP 61, STRESS PERIOD  2 READ UNFORMATTED ON UNIT 10
                    --------------------------------------------------------------------------------------------


 TOTAL NUMBER OF POINT SOURCES/SINKS PRESENT IN THE FLOW MODEL =    41

 MAXIMUM STEPSIZE WHICH MEETS STABILITY CRITERION OF THE SINK & SOURCE TERM
 =  180.0    (WHEN MIN. R.F.=1)  AT K=   1, I=   5, J=   5

 MAXIMUM STEPSIZE WHICH MEETS STABILITY CRITERION OF THE DISPERSION TERM
 =  536.5    (WHEN MIN. R.F.=1)  AT K=   1, I=   5, J=   5


     1 CALLS TO GCG PACKAGE FOR TRANSPORT TIME STEP   1 IN FLOW TIME STEP  61 STRESS PERIOD   2
     2 TOTAL ITERATIONS
  MAXIMUM CONCENTRATION CHANGES FOR EACH ITERATION:
  MAX. CHANGE LAYER,ROW,COL MAX. CHANGE LAYER,ROW,COL MAX. CHANGE LAYER,ROW,COL MAX. CHANGE LAYER,ROW,COL MAX. CHANGE LAYER,ROW,COL
 ------------------------------------------------------------------------------------------------------------------------------------
   0.1351E-01 (  1,  5,  5)  0.2910E-10 (  1,  4,  6)


                                          ================================================
                                                         TIME STEP NO.  062
                                          ================================================

 FROM TIME =   62.000     TO    63.000    


                    "THKSAT          " FLOW TERMS FOR TIME STEP 62, STRESS PERIOD  2 READ UNFORMATTED ON UNIT 10
                    --------------------------------------------------------------------------------------------

                    "QXX             " FLOW TERMS FOR TIME STEP 62, STRESS PERIOD  2 READ UNFORMATTED ON UNIT 10
                    --------------------------------------------------------------------------------------------

                    "QYY             " FLOW TERMS FOR TIME STEP 62, STRESS PERIOD  2 READ UNFORMATTED ON UNIT 10
                    --------------------------------------------------------------------------------------------

                    "QZZ             " FLOW TERMS FOR TIME STEP 62, STRESS PERIOD  2 READ UNFORMATTED ON UNIT 10
                    --------------------------------------------------------------------------------------------

                    "STO             " FLOW TERMS FOR TIME STEP 62, STRESS PERIOD  2 READ UNFORMATTED ON UNIT 10
                    --------------------------------------------------------------------------------------------

 MAXIMUM STEPSIZE DURING WHICH ANY PARTICLE CANNOT MOVE MORE THAN ONE CELL
 =  844.2    (WHEN MIN. R.F.=1)  AT K=   2, I=   5, J=   5

 MAXIMUM STEPSIZE WHICH MEETS STABILITY CRITERION OF THE ADVECTION TERM
 (FOR PURE FINITE-DIFFERENCE OPTION, MIXELM=0) 
 =  268.4    (WHEN MIN. R.F.=1)  AT K=   2, I=   5, J=   5

                    "CNH             " FLOW TERMS FOR TIME STEP 62, STRESS PERIOD  2 READ UNFORMATTED ON UNIT 10
                    --------------------------------------------------------------------------------------------

                    "WEL             " FLOW TERMS FOR TIME STEP 62, STRESS PERIOD  2 READ UNFORMATTED ON UNIT 10
                    --------------------------------------------------------------------------------------------

                    "GHB             " FLOW TERMS FOR TIME STEP 62, STRESS PERIOD  2 READ UNFORMATTED ON UNIT 10
                    --------------------------------------------------------------------------------------------


 TOTAL NUMBER OF POINT SOURCES/SINKS PRESENT IN THE FLOW MODEL =    41

 MAXIMUM STEPSIZE WHICH MEETS STABILITY CRITERION OF THE SINK & SOURCE TERM
 =  180.0    (WHEN MIN. R.F.=1)  AT K=   1, I=   5, J=   5

 MAXIMUM STEPSIZE WHICH MEETS STABILITY CRITERION OF THE DISPERSION TERM
 =  536.7    (WHEN MIN. R.F.=1)  AT K=   1, I=   5, J=   5


     1 CALLS TO GCG PACKAGE FOR TRANSPORT TIME STEP   1 IN FLOW TIME STEP  62 STRESS PERIOD   2
     2 TOTAL ITERATIONS
  MAXIMUM CONCENTRATION CHANGES FOR EACH ITERATION:
  MAX. CHANGE LAYER,ROW,COL MAX. CHANGE LAYER,ROW,COL MAX. CHANGE LAYER,ROW,COL MAX. CHANGE LAYER,ROW,COL MAX. CHANGE LAYER,ROW,COL
 ------------------------------------------------------------------------------------------------------------------------------------
   0.1324E-01 (  1,  5,  5)  0.2910E-10 (  1,  4,  6)


                                          ================================================
                                                         TIME STEP NO.  063
                                          ================================================

 FROM TIME =   63.000     TO    64.000    


                    "THKSAT          " FLOW TERMS FOR TIME STEP 63, STRESS PERIOD  2 READ UNFORMATTED ON UNIT 10
                    --------------------------------------------------------------------------------------------

                    "QXX             " FLOW TERMS FOR TIME STEP 63, STRESS PERIOD  2 READ UNFORMATTED ON UNIT 10
                    --------------------------------------------------------------------------------------------

                    "QYY             " FLOW TERMS FOR TIME STEP 63, STRESS PERIOD  2 READ UNFORMATTED ON UNIT 10
                    --------------------------------------------------------------------------------------------

                    "QZZ             " FLOW TERMS FOR TIME STEP 63, STRESS PERIOD  2 READ UNFORMATTED ON UNIT 10
                    --------------------------------------------------------------------------------------------

                    "STO             " FLOW TERMS FOR TIME STEP 63, STRESS PERIOD  2 READ UNFORMATTED ON UNIT 10
                    --------------------------------------------------------------------------------------------

 MAXIMUM STEPSIZE DURING WHICH ANY PARTICLE CANNOT MOVE MORE THAN ONE CELL
 =  844.1    (WHEN MIN. R.F.=1)  AT K=   2, I=   5, J=   5

 MAXIMUM STEPSIZE WHICH MEETS STABILITY CRITERION OF THE ADVECTION TERM
 (FOR PURE FINITE-DIFFERENCE OPTION, MIXELM=0) 
 =  268.3    (WHEN MIN. R.F.=1)  AT K=   2, I=   5, J=   5

                    "CNH             " FLOW TERMS FOR TIME STEP 63, STRESS PERIOD  2 READ UNFORMATTED ON UNIT 10
                    --------------------------------------------------------------------------------------------

                    "WEL             " FLOW TERMS FOR TIME STEP 63, STRESS PERIOD  2 READ UNFORMATTED ON UNIT 10
                    --------------------------------------------------------------------------------------------

                    "GHB             " FLOW TERMS FOR TIME STEP 63, STRESS PERIOD  2 READ UNFORMATTED ON UNIT 10
                    --------------------------------------------------------------------------------------------


 TOTAL NUMBER OF POINT SOURCES/SINKS PRESENT IN THE FLOW MODEL =    41

 MAXIMUM STEPSIZE WHICH MEETS STABILITY CRITERION OF THE SINK & SOURCE TERM
 =  180.0    (WHEN MIN. R.F.=1)  AT K=   1, I=   5, J=   5

 MAXIMUM STEPSIZE WHICH MEETS STABILITY CRITERION OF THE DISPERSION TERM
 =  536.8    (WHEN MIN. R.F.=1)  AT K=   1, I=   5, J=   5


     1 CALLS TO GCG PACKAGE FOR TRANSPORT TIME STEP   1 IN FLOW TIME STEP  63 STRESS PERIOD   2
     2 TOTAL ITERATIONS
  MAXIMUM CONCENTRATION CHANGES FOR EACH ITERATION:
  MAX. CHANGE LAYER,ROW,COL MAX. CHANGE LAYER,ROW,COL MAX. CHANGE LAYER,ROW,COL MAX. CHANGE LAYER,ROW,COL MAX. CHANGE LAYER,ROW,COL
 ------------------------------------------------------------------------------------------------------------------------------------
   0.1298E-01 (  1,  5,  5)  0.2910E-10 (  1,  4,  6)


                                          ================================================
                                                         TIME STEP NO.  064
                                          ================================================

 FROM TIME =   64.000     TO    65.000    


                    "THKSAT          " FLOW TERMS FOR TIME STEP 64, STRESS PERIOD  2 READ UNFORMATTED ON UNIT 10
                    --------------------------------------------------------------------------------------------

                    "QXX             " FLOW TERMS FOR TIME STEP 64, STRESS PERIOD  2 READ UNFORMATTED ON UNIT 10
                    --------------------------------------------------------------------------------------------

                    "QYY             " FLOW TERMS FOR TIME STEP 64, STRESS PERIOD  2 READ UNFORMATTED ON UNIT 10
                    --------------------------------------------------------------------------------------------

                    "QZZ             " FLOW TERMS FOR TIME STEP 64, STRESS PERIOD  2 READ UNFORMATTED ON UNIT 10
                    --------------------------------------------------------------------------------------------

                    "STO             " FLOW TERMS FOR TIME STEP 64, STRESS PERIOD  2 READ UNFORMATTED ON UNIT 10
                    --------------------------------------------------------------------------------------------

 MAXIMUM STEPSIZE DURING WHICH ANY PARTICLE CANNOT MOVE MORE THAN ONE CELL
 =  844.1    (WHEN MIN. R.F.=1)  AT K=   2, I=   5, J=   5

 MAXIMUM STEPSIZE WHICH MEETS STABILITY CRITERION OF THE ADVECTION TERM
 (FOR PURE FINITE-DIFFERENCE OPTION, MIXELM=0) 
 =  268.1    (WHEN MIN. R.F.=1)  AT K=   2, I=   5, J=   5

                    "CNH             " FLOW TERMS FOR TIME STEP 64, STRESS PERIOD  2 READ UNFORMATTED ON UNIT 10
                    --------------------------------------------------------------------------------------------

                    "WEL             " FLOW TERMS FOR TIME STEP 64, STRESS PERIOD  2 READ UNFORMATTED ON UNIT 10
                    --------------------------------------------------------------------------------------------

                    "GHB             " FLOW TERMS FOR TIME STEP 64, STRESS PERIOD  2 READ UNFORMATTED ON UNIT 10
                    --------------------------------------------------------------------------------------------


 TOTAL NUMBER OF POINT SOURCES/SINKS PRESENT IN THE FLOW MODEL =    41

 MAXIMUM STEPSIZE WHICH MEETS STABILITY CRITERION OF THE SINK & SOURCE TERM
 =  180.0    (WHEN MIN. R.F.=1)  AT K=   1, I=   5, J=   5

 MAXIMUM STEPSIZE WHICH MEETS STABILITY CRITERION OF THE DISPERSION TERM
 =  536.9    (WHEN MIN. R.F.=1)  AT K=   1, I=   5, J=   5


     1 CALLS TO GCG PACKAGE FOR TRANSPORT TIME STEP   1 IN FLOW TIME STEP  64 STRESS PERIOD   2
     2 TOTAL ITERATIONS
  MAXIMUM CONCENTRATION CHANGES FOR EACH ITERATION:
  MAX. CHANGE LAYER,ROW,COL MAX. CHANGE LAYER,ROW,COL MAX. CHANGE LAYER,ROW,COL MAX. CHANGE LAYER,ROW,COL MAX. CHANGE LAYER,ROW,COL
 ------------------------------------------------------------------------------------------------------------------------------------
   0.1273E-01 (  1,  5,  5)  0.2910E-10 (  1,  4,  6)


                                          ================================================
                                                         TIME STEP NO.  065
                                          ================================================

 FROM TIME =   65.000     TO    66.000    


                    "THKSAT          " FLOW TERMS FOR TIME STEP 65, STRESS PERIOD  2 READ UNFORMATTED ON UNIT 10
                    --------------------------------------------------------------------------------------------

                    "QXX             " FLOW TERMS FOR TIME STEP 65, STRESS PERIOD  2 READ UNFORMATTED ON UNIT 10
                    --------------------------------------------------------------------------------------------

                    "QYY             " FLOW TERMS FOR TIME STEP 65, STRESS PERIOD  2 READ UNFORMATTED ON UNIT 10
                    --------------------------------------------------------------------------------------------

                    "QZZ             " FLOW TERMS FOR TIME STEP 65, STRESS PERIOD  2 READ UNFORMATTED ON UNIT 10
                    --------------------------------------------------------------------------------------------

                    "STO             " FLOW TERMS FOR TIME STEP 65, STRESS PERIOD  2 READ UNFORMATTED ON UNIT 10
                    --------------------------------------------------------------------------------------------

 MAXIMUM STEPSIZE DURING WHICH ANY PARTICLE CANNOT MOVE MORE THAN ONE CELL
 =  844.1    (WHEN MIN. R.F.=1)  AT K=   2, I=   5, J=   5

 MAXIMUM STEPSIZE WHICH MEETS STABILITY CRITERION OF THE ADVECTION TERM
 (FOR PURE FINITE-DIFFERENCE OPTION, MIXELM=0) 
 =  268.0    (WHEN MIN. R.F.=1)  AT K=   2, I=   5, J=   5

                    "CNH             " FLOW TERMS FOR TIME STEP 65, STRESS PERIOD  2 READ UNFORMATTED ON UNIT 10
                    --------------------------------------------------------------------------------------------

                    "WEL             " FLOW TERMS FOR TIME STEP 65, STRESS PERIOD  2 READ UNFORMATTED ON UNIT 10
                    --------------------------------------------------------------------------------------------

                    "GHB             " FLOW TERMS FOR TIME STEP 65, STRESS PERIOD  2 READ UNFORMATTED ON UNIT 10
                    --------------------------------------------------------------------------------------------


 TOTAL NUMBER OF POINT SOURCES/SINKS PRESENT IN THE FLOW MODEL =    41

 MAXIMUM STEPSIZE WHICH MEETS STABILITY CRITERION OF THE SINK & SOURCE TERM
 =  180.0    (WHEN MIN. R.F.=1)  AT K=   1, I=   5, J=   5

 MAXIMUM STEPSIZE WHICH MEETS STABILITY CRITERION OF THE DISPERSION TERM
 =  537.1    (WHEN MIN. R.F.=1)  AT K=   1, I=   5, J=   5


     1 CALLS TO GCG PACKAGE FOR TRANSPORT TIME STEP   1 IN FLOW TIME STEP  65 STRESS PERIOD   2
     2 TOTAL ITERATIONS
  MAXIMUM CONCENTRATION CHANGES FOR EACH ITERATION:
  MAX. CHANGE LAYER,ROW,COL MAX. CHANGE LAYER,ROW,COL MAX. CHANGE LAYER,ROW,COL MAX. CHANGE LAYER,ROW,COL MAX. CHANGE LAYER,ROW,COL
 ------------------------------------------------------------------------------------------------------------------------------------
   0.1249E-01 (  1,  5,  5)  0.2910E-10 (  1,  4,  6)


                                          ================================================
                                                         TIME STEP NO.  066
                                          ================================================

 FROM TIME =   66.000     TO    67.000    


                    "THKSAT          " FLOW TERMS FOR TIME STEP 66, STRESS PERIOD  2 READ UNFORMATTED ON UNIT 10
                    --------------------------------------------------------------------------------------------

                    "QXX             " FLOW TERMS FOR TIME STEP 66, STRESS PERIOD  2 READ UNFORMATTED ON UNIT 10
                    --------------------------------------------------------------------------------------------

                    "QYY             " FLOW TERMS FOR TIME STEP 66, STRESS PERIOD  2 READ UNFORMATTED ON UNIT 10
                    --------------------------------------------------------------------------------------------

                    "QZZ             " FLOW TERMS FOR TIME STEP 66, STRESS PERIOD  2 READ UNFORMATTED ON UNIT 10
                    --------------------------------------------------------------------------------------------

                    "STO             " FLOW TERMS FOR TIME STEP 66, STRESS PERIOD  2 READ UNFORMATTED ON UNIT 10
                    --------------------------------------------------------------------------------------------

 MAXIMUM STEPSIZE DURING WHICH ANY PARTICLE CANNOT MOVE MORE THAN ONE CELL
 =  844.1    (WHEN MIN. R.F.=1)  AT K=   2, I=   5, J=   5

 MAXIMUM STEPSIZE WHICH MEETS STABILITY CRITERION OF THE ADVECTION TERM
 (FOR PURE FINITE-DIFFERENCE OPTION, MIXELM=0) 
 =  267.9    (WHEN MIN. R.F.=1)  AT K=   2, I=   5, J=   5

                    "CNH             " FLOW TERMS FOR TIME STEP 66, STRESS PERIOD  2 READ UNFORMATTED ON UNIT 10
                    --------------------------------------------------------------------------------------------

                    "WEL             " FLOW TERMS FOR TIME STEP 66, STRESS PERIOD  2 READ UNFORMATTED ON UNIT 10
                    --------------------------------------------------------------------------------------------

                    "GHB             " FLOW TERMS FOR TIME STEP 66, STRESS PERIOD  2 READ UNFORMATTED ON UNIT 10
                    --------------------------------------------------------------------------------------------


 TOTAL NUMBER OF POINT SOURCES/SINKS PRESENT IN THE FLOW MODEL =    41

 MAXIMUM STEPSIZE WHICH MEETS STABILITY CRITERION OF THE SINK & SOURCE TERM
 =  180.0    (WHEN MIN. R.F.=1)  AT K=   1, I=   5, J=   5

 MAXIMUM STEPSIZE WHICH MEETS STABILITY CRITERION OF THE DISPERSION TERM
 =  537.3    (WHEN MIN. R.F.=1)  AT K=   1, I=   5, J=   5


     1 CALLS TO GCG PACKAGE FOR TRANSPORT TIME STEP   1 IN FLOW TIME STEP  66 STRESS PERIOD   2
     2 TOTAL ITERATIONS
  MAXIMUM CONCENTRATION CHANGES FOR EACH ITERATION:
  MAX. CHANGE LAYER,ROW,COL MAX. CHANGE LAYER,ROW,COL MAX. CHANGE LAYER,ROW,COL MAX. CHANGE LAYER,ROW,COL MAX. CHANGE LAYER,ROW,COL
 ------------------------------------------------------------------------------------------------------------------------------------
   0.1226E-01 (  1,  5,  5)  0.2910E-10 (  1,  4,  6)


                                          ================================================
                                                         TIME STEP NO.  067
                                          ================================================

 FROM TIME =   67.000     TO    68.000    


                    "THKSAT          " FLOW TERMS FOR TIME STEP 67, STRESS PERIOD  2 READ UNFORMATTED ON UNIT 10
                    --------------------------------------------------------------------------------------------

                    "QXX             " FLOW TERMS FOR TIME STEP 67, STRESS PERIOD  2 READ UNFORMATTED ON UNIT 10
                    --------------------------------------------------------------------------------------------

                    "QYY             " FLOW TERMS FOR TIME STEP 67, STRESS PERIOD  2 READ UNFORMATTED ON UNIT 10
                    --------------------------------------------------------------------------------------------

                    "QZZ             " FLOW TERMS FOR TIME STEP 67, STRESS PERIOD  2 READ UNFORMATTED ON UNIT 10
                    --------------------------------------------------------------------------------------------

                    "STO             " FLOW TERMS FOR TIME STEP 67, STRESS PERIOD  2 READ UNFORMATTED ON UNIT 10
                    --------------------------------------------------------------------------------------------

 MAXIMUM STEPSIZE DURING WHICH ANY PARTICLE CANNOT MOVE MORE THAN ONE CELL
 =  844.1    (WHEN MIN. R.F.=1)  AT K=   2, I=   5, J=   5

 MAXIMUM STEPSIZE WHICH MEETS STABILITY CRITERION OF THE ADVECTION TERM
 (FOR PURE FINITE-DIFFERENCE OPTION, MIXELM=0) 
 =  267.8    (WHEN MIN. R.F.=1)  AT K=   2, I=   5, J=   5

                    "CNH             " FLOW TERMS FOR TIME STEP 67, STRESS PERIOD  2 READ UNFORMATTED ON UNIT 10
                    --------------------------------------------------------------------------------------------

                    "WEL             " FLOW TERMS FOR TIME STEP 67, STRESS PERIOD  2 READ UNFORMATTED ON UNIT 10
                    --------------------------------------------------------------------------------------------

                    "GHB             " FLOW TERMS FOR TIME STEP 67, STRESS PERIOD  2 READ UNFORMATTED ON UNIT 10
                    --------------------------------------------------------------------------------------------


 TOTAL NUMBER OF POINT SOURCES/SINKS PRESENT IN THE FLOW MODEL =    41

 MAXIMUM STEPSIZE WHICH MEETS STABILITY CRITERION OF THE SINK & SOURCE TERM
 =  180.0    (WHEN MIN. R.F.=1)  AT K=   1, I=   5, J=   5

 MAXIMUM STEPSIZE WHICH MEETS STABILITY CRITERION OF THE DISPERSION TERM
 =  537.4    (WHEN MIN. R.F.=1)  AT K=   1, I=   5, J=   5


     1 CALLS TO GCG PACKAGE FOR TRANSPORT TIME STEP   1 IN FLOW TIME STEP  67 STRESS PERIOD   2
     2 TOTAL ITERATIONS
  MAXIMUM CONCENTRATION CHANGES FOR EACH ITERATION:
  MAX. CHANGE LAYER,ROW,COL MAX. CHANGE LAYER,ROW,COL MAX. CHANGE LAYER,ROW,COL MAX. CHANGE LAYER,ROW,COL MAX. CHANGE LAYER,ROW,COL
 ------------------------------------------------------------------------------------------------------------------------------------
   0.1203E-01 (  1,  5,  5)  0.2910E-10 (  1,  4,  6)


                                          ================================================
                                                         TIME STEP NO.  068
                                          ================================================

 FROM TIME =   68.000     TO    69.000    


                    "THKSAT          " FLOW TERMS FOR TIME STEP 68, STRESS PERIOD  2 READ UNFORMATTED ON UNIT 10
                    --------------------------------------------------------------------------------------------

                    "QXX             " FLOW TERMS FOR TIME STEP 68, STRESS PERIOD  2 READ UNFORMATTED ON UNIT 10
                    --------------------------------------------------------------------------------------------

                    "QYY             " FLOW TERMS FOR TIME STEP 68, STRESS PERIOD  2 READ UNFORMATTED ON UNIT 10
                    --------------------------------------------------------------------------------------------

                    "QZZ             " FLOW TERMS FOR TIME STEP 68, STRESS PERIOD  2 READ UNFORMATTED ON UNIT 10
                    --------------------------------------------------------------------------------------------

                    "STO             " FLOW TERMS FOR TIME STEP 68, STRESS PERIOD  2 READ UNFORMATTED ON UNIT 10
                    --------------------------------------------------------------------------------------------

 MAXIMUM STEPSIZE DURING WHICH ANY PARTICLE CANNOT MOVE MORE THAN ONE CELL
 =  844.1    (WHEN MIN. R.F.=1)  AT K=   2, I=   5, J=   5

 MAXIMUM STEPSIZE WHICH MEETS STABILITY CRITERION OF THE ADVECTION TERM
 (FOR PURE FINITE-DIFFERENCE OPTION, MIXELM=0) 
 =  267.7    (WHEN MIN. R.F.=1)  AT K=   2, I=   5, J=   5

                    "CNH             " FLOW TERMS FOR TIME STEP 68, STRESS PERIOD  2 READ UNFORMATTED ON UNIT 10
                    --------------------------------------------------------------------------------------------

                    "WEL             " FLOW TERMS FOR TIME STEP 68, STRESS PERIOD  2 READ UNFORMATTED ON UNIT 10
                    --------------------------------------------------------------------------------------------

                    "GHB             " FLOW TERMS FOR TIME STEP 68, STRESS PERIOD  2 READ UNFORMATTED ON UNIT 10
                    --------------------------------------------------------------------------------------------


 TOTAL NUMBER OF POINT SOURCES/SINKS PRESENT IN THE FLOW MODEL =    41

 MAXIMUM STEPSIZE WHICH MEETS STABILITY CRITERION OF THE SINK & SOURCE TERM
 =  180.0    (WHEN MIN. R.F.=1)  AT K=   1, I=   5, J=   5

 MAXIMUM STEPSIZE WHICH MEETS STABILITY CRITERION OF THE DISPERSION TERM
 =  537.6    (WHEN MIN. R.F.=1)  AT K=   1, I=   5, J=   5


     1 CALLS TO GCG PACKAGE FOR TRANSPORT TIME STEP   1 IN FLOW TIME STEP  68 STRESS PERIOD   2
     2 TOTAL ITERATIONS
  MAXIMUM CONCENTRATION CHANGES FOR EACH ITERATION:
  MAX. CHANGE LAYER,ROW,COL MAX. CHANGE LAYER,ROW,COL MAX. CHANGE LAYER,ROW,COL MAX. CHANGE LAYER,ROW,COL MAX. CHANGE LAYER,ROW,COL
 ------------------------------------------------------------------------------------------------------------------------------------
   0.1181E-01 (  1,  5,  5)  0.2910E-10 (  1,  4,  6)


                                          ================================================
                                                         TIME STEP NO.  069
                                          ================================================

 FROM TIME =   69.000     TO    70.000    


                    "THKSAT          " FLOW TERMS FOR TIME STEP 69, STRESS PERIOD  2 READ UNFORMATTED ON UNIT 10
                    --------------------------------------------------------------------------------------------

                    "QXX             " FLOW TERMS FOR TIME STEP 69, STRESS PERIOD  2 READ UNFORMATTED ON UNIT 10
                    --------------------------------------------------------------------------------------------

                    "QYY             " FLOW TERMS FOR TIME STEP 69, STRESS PERIOD  2 READ UNFORMATTED ON UNIT 10
                    --------------------------------------------------------------------------------------------

                    "QZZ             " FLOW TERMS FOR TIME STEP 69, STRESS PERIOD  2 READ UNFORMATTED ON UNIT 10
                    --------------------------------------------------------------------------------------------

                    "STO             " FLOW TERMS FOR TIME STEP 69, STRESS PERIOD  2 READ UNFORMATTED ON UNIT 10
                    --------------------------------------------------------------------------------------------

 MAXIMUM STEPSIZE DURING WHICH ANY PARTICLE CANNOT MOVE MORE THAN ONE CELL
 =  844.1    (WHEN MIN. R.F.=1)  AT K=   2, I=   5, J=   5

 MAXIMUM STEPSIZE WHICH MEETS STABILITY CRITERION OF THE ADVECTION TERM
 (FOR PURE FINITE-DIFFERENCE OPTION, MIXELM=0) 
 =  267.5    (WHEN MIN. R.F.=1)  AT K=   2, I=   5, J=   5

                    "CNH             " FLOW TERMS FOR TIME STEP 69, STRESS PERIOD  2 READ UNFORMATTED ON UNIT 10
                    --------------------------------------------------------------------------------------------

                    "WEL             " FLOW TERMS FOR TIME STEP 69, STRESS PERIOD  2 READ UNFORMATTED ON UNIT 10
                    --------------------------------------------------------------------------------------------

                    "GHB             " FLOW TERMS FOR TIME STEP 69, STRESS PERIOD  2 READ UNFORMATTED ON UNIT 10
                    --------------------------------------------------------------------------------------------


 TOTAL NUMBER OF POINT SOURCES/SINKS PRESENT IN THE FLOW MODEL =    41

 MAXIMUM STEPSIZE WHICH MEETS STABILITY CRITERION OF THE SINK & SOURCE TERM
 =  180.0    (WHEN MIN. R.F.=1)  AT K=   1, I=   5, J=   5

 MAXIMUM STEPSIZE WHICH MEETS STABILITY CRITERION OF THE DISPERSION TERM
 =  537.8    (WHEN MIN. R.F.=1)  AT K=   1, I=   5, J=   5


     1 CALLS TO GCG PACKAGE FOR TRANSPORT TIME STEP   1 IN FLOW TIME STEP  69 STRESS PERIOD   2
     2 TOTAL ITERATIONS
  MAXIMUM CONCENTRATION CHANGES FOR EACH ITERATION:
  MAX. CHANGE LAYER,ROW,COL MAX. CHANGE LAYER,ROW,COL MAX. CHANGE LAYER,ROW,COL MAX. CHANGE LAYER,ROW,COL MAX. CHANGE LAYER,ROW,COL
 ------------------------------------------------------------------------------------------------------------------------------------
   0.1159E-01 (  1,  5,  5)  0.2910E-10 (  1,  4,  6)


                                          ================================================
                                                         TIME STEP NO.  070
                                          ================================================

 FROM TIME =   70.000     TO    71.000    


                    "THKSAT          " FLOW TERMS FOR TIME STEP 70, STRESS PERIOD  2 READ UNFORMATTED ON UNIT 10
                    --------------------------------------------------------------------------------------------

                    "QXX             " FLOW TERMS FOR TIME STEP 70, STRESS PERIOD  2 READ UNFORMATTED ON UNIT 10
                    --------------------------------------------------------------------------------------------

                    "QYY             " FLOW TERMS FOR TIME STEP 70, STRESS PERIOD  2 READ UNFORMATTED ON UNIT 10
                    --------------------------------------------------------------------------------------------

                    "QZZ             " FLOW TERMS FOR TIME STEP 70, STRESS PERIOD  2 READ UNFORMATTED ON UNIT 10
                    --------------------------------------------------------------------------------------------

                    "STO             " FLOW TERMS FOR TIME STEP 70, STRESS PERIOD  2 READ UNFORMATTED ON UNIT 10
                    --------------------------------------------------------------------------------------------

 MAXIMUM STEPSIZE DURING WHICH ANY PARTICLE CANNOT MOVE MORE THAN ONE CELL
 =  844.1    (WHEN MIN. R.F.=1)  AT K=   2, I=   5, J=   5

 MAXIMUM STEPSIZE WHICH MEETS STABILITY CRITERION OF THE ADVECTION TERM
 (FOR PURE FINITE-DIFFERENCE OPTION, MIXELM=0) 
 =  267.4    (WHEN MIN. R.F.=1)  AT K=   2, I=   5, J=   5

                    "CNH             " FLOW TERMS FOR TIME STEP 70, STRESS PERIOD  2 READ UNFORMATTED ON UNIT 10
                    --------------------------------------------------------------------------------------------

                    "WEL             " FLOW TERMS FOR TIME STEP 70, STRESS PERIOD  2 READ UNFORMATTED ON UNIT 10
                    --------------------------------------------------------------------------------------------

                    "GHB             " FLOW TERMS FOR TIME STEP 70, STRESS PERIOD  2 READ UNFORMATTED ON UNIT 10
                    --------------------------------------------------------------------------------------------


 TOTAL NUMBER OF POINT SOURCES/SINKS PRESENT IN THE FLOW MODEL =    41

 MAXIMUM STEPSIZE WHICH MEETS STABILITY CRITERION OF THE SINK & SOURCE TERM
 =  180.0    (WHEN MIN. R.F.=1)  AT K=   1, I=   5, J=   5

 MAXIMUM STEPSIZE WHICH MEETS STABILITY CRITERION OF THE DISPERSION TERM
 =  537.9    (WHEN MIN. R.F.=1)  AT K=   1, I=   5, J=   5


     1 CALLS TO GCG PACKAGE FOR TRANSPORT TIME STEP   1 IN FLOW TIME STEP  70 STRESS PERIOD   2
     2 TOTAL ITERATIONS
  MAXIMUM CONCENTRATION CHANGES FOR EACH ITERATION:
  MAX. CHANGE LAYER,ROW,COL MAX. CHANGE LAYER,ROW,COL MAX. CHANGE LAYER,ROW,COL MAX. CHANGE LAYER,ROW,COL MAX. CHANGE LAYER,ROW,COL
 ------------------------------------------------------------------------------------------------------------------------------------
   0.1138E-01 (  1,  5,  5)  0.2910E-10 (  1,  4,  6)


                                          ================================================
                                                         TIME STEP NO.  071
                                          ================================================

 FROM TIME =   71.000     TO    72.000    


                    "THKSAT          " FLOW TERMS FOR TIME STEP 71, STRESS PERIOD  2 READ UNFORMATTED ON UNIT 10
                    --------------------------------------------------------------------------------------------

                    "QXX             " FLOW TERMS FOR TIME STEP 71, STRESS PERIOD  2 READ UNFORMATTED ON UNIT 10
                    --------------------------------------------------------------------------------------------

                    "QYY             " FLOW TERMS FOR TIME STEP 71, STRESS PERIOD  2 READ UNFORMATTED ON UNIT 10
                    --------------------------------------------------------------------------------------------

                    "QZZ             " FLOW TERMS FOR TIME STEP 71, STRESS PERIOD  2 READ UNFORMATTED ON UNIT 10
                    --------------------------------------------------------------------------------------------

                    "STO             " FLOW TERMS FOR TIME STEP 71, STRESS PERIOD  2 READ UNFORMATTED ON UNIT 10
                    --------------------------------------------------------------------------------------------

 MAXIMUM STEPSIZE DURING WHICH ANY PARTICLE CANNOT MOVE MORE THAN ONE CELL
 =  844.1    (WHEN MIN. R.F.=1)  AT K=   2, I=   5, J=   5

 MAXIMUM STEPSIZE WHICH MEETS STABILITY CRITERION OF THE ADVECTION TERM
 (FOR PURE FINITE-DIFFERENCE OPTION, MIXELM=0) 
 =  267.2    (WHEN MIN. R.F.=1)  AT K=   2, I=   5, J=   5

                    "CNH             " FLOW TERMS FOR TIME STEP 71, STRESS PERIOD  2 READ UNFORMATTED ON UNIT 10
                    --------------------------------------------------------------------------------------------

                    "WEL             " FLOW TERMS FOR TIME STEP 71, STRESS PERIOD  2 READ UNFORMATTED ON UNIT 10
                    --------------------------------------------------------------------------------------------

                    "GHB             " FLOW TERMS FOR TIME STEP 71, STRESS PERIOD  2 READ UNFORMATTED ON UNIT 10
                    --------------------------------------------------------------------------------------------


 TOTAL NUMBER OF POINT SOURCES/SINKS PRESENT IN THE FLOW MODEL =    41

 MAXIMUM STEPSIZE WHICH MEETS STABILITY CRITERION OF THE SINK & SOURCE TERM
 =  180.0    (WHEN MIN. R.F.=1)  AT K=   1, I=   5, J=   5

 MAXIMUM STEPSIZE WHICH MEETS STABILITY CRITERION OF THE DISPERSION TERM
 =  538.1    (WHEN MIN. R.F.=1)  AT K=   1, I=   5, J=   5


     1 CALLS TO GCG PACKAGE FOR TRANSPORT TIME STEP   1 IN FLOW TIME STEP  71 STRESS PERIOD   2
     2 TOTAL ITERATIONS
  MAXIMUM CONCENTRATION CHANGES FOR EACH ITERATION:
  MAX. CHANGE LAYER,ROW,COL MAX. CHANGE LAYER,ROW,COL MAX. CHANGE LAYER,ROW,COL MAX. CHANGE LAYER,ROW,COL MAX. CHANGE LAYER,ROW,COL
 ------------------------------------------------------------------------------------------------------------------------------------
   0.1118E-01 (  1,  5,  5)  0.2910E-10 (  1,  4,  6)


                                          ================================================
                                                         TIME STEP NO.  072
                                          ================================================

 FROM TIME =   72.000     TO    73.000    


                    "THKSAT          " FLOW TERMS FOR TIME STEP 72, STRESS PERIOD  2 READ UNFORMATTED ON UNIT 10
                    --------------------------------------------------------------------------------------------

                    "QXX             " FLOW TERMS FOR TIME STEP 72, STRESS PERIOD  2 READ UNFORMATTED ON UNIT 10
                    --------------------------------------------------------------------------------------------

                    "QYY             " FLOW TERMS FOR TIME STEP 72, STRESS PERIOD  2 READ UNFORMATTED ON UNIT 10
                    --------------------------------------------------------------------------------------------

                    "QZZ             " FLOW TERMS FOR TIME STEP 72, STRESS PERIOD  2 READ UNFORMATTED ON UNIT 10
                    --------------------------------------------------------------------------------------------

                    "STO             " FLOW TERMS FOR TIME STEP 72, STRESS PERIOD  2 READ UNFORMATTED ON UNIT 10
                    --------------------------------------------------------------------------------------------

 MAXIMUM STEPSIZE DURING WHICH ANY PARTICLE CANNOT MOVE MORE THAN ONE CELL
 =  843.9    (WHEN MIN. R.F.=1)  AT K=   2, I=   5, J=   5

 MAXIMUM STEPSIZE WHICH MEETS STABILITY CRITERION OF THE ADVECTION TERM
 (FOR PURE FINITE-DIFFERENCE OPTION, MIXELM=0) 
 =  267.1    (WHEN MIN. R.F.=1)  AT K=   2, I=   5, J=   5

                    "CNH             " FLOW TERMS FOR TIME STEP 72, STRESS PERIOD  2 READ UNFORMATTED ON UNIT 10
                    --------------------------------------------------------------------------------------------

                    "WEL             " FLOW TERMS FOR TIME STEP 72, STRESS PERIOD  2 READ UNFORMATTED ON UNIT 10
                    --------------------------------------------------------------------------------------------

                    "GHB             " FLOW TERMS FOR TIME STEP 72, STRESS PERIOD  2 READ UNFORMATTED ON UNIT 10
                    --------------------------------------------------------------------------------------------


 TOTAL NUMBER OF POINT SOURCES/SINKS PRESENT IN THE FLOW MODEL =    41

 MAXIMUM STEPSIZE WHICH MEETS STABILITY CRITERION OF THE SINK & SOURCE TERM
 =  180.0    (WHEN MIN. R.F.=1)  AT K=   1, I=   5, J=   5

 MAXIMUM STEPSIZE WHICH MEETS STABILITY CRITERION OF THE DISPERSION TERM
 =  538.2    (WHEN MIN. R.F.=1)  AT K=   1, I=   5, J=   5


     1 CALLS TO GCG PACKAGE FOR TRANSPORT TIME STEP   1 IN FLOW TIME STEP  72 STRESS PERIOD   2
     2 TOTAL ITERATIONS
  MAXIMUM CONCENTRATION CHANGES FOR EACH ITERATION:
  MAX. CHANGE LAYER,ROW,COL MAX. CHANGE LAYER,ROW,COL MAX. CHANGE LAYER,ROW,COL MAX. CHANGE LAYER,ROW,COL MAX. CHANGE LAYER,ROW,COL
 ------------------------------------------------------------------------------------------------------------------------------------
   0.1098E-01 (  1,  5,  5)  0.2910E-10 (  1,  4,  6)


                                          ================================================
                                                         TIME STEP NO.  073
                                          ================================================

 FROM TIME =   73.000     TO    74.000    


                    "THKSAT          " FLOW TERMS FOR TIME STEP 73, STRESS PERIOD  2 READ UNFORMATTED ON UNIT 10
                    --------------------------------------------------------------------------------------------

                    "QXX             " FLOW TERMS FOR TIME STEP 73, STRESS PERIOD  2 READ UNFORMATTED ON UNIT 10
                    --------------------------------------------------------------------------------------------

                    "QYY             " FLOW TERMS FOR TIME STEP 73, STRESS PERIOD  2 READ UNFORMATTED ON UNIT 10
                    --------------------------------------------------------------------------------------------

                    "QZZ             " FLOW TERMS FOR TIME STEP 73, STRESS PERIOD  2 READ UNFORMATTED ON UNIT 10
                    --------------------------------------------------------------------------------------------

                    "STO             " FLOW TERMS FOR TIME STEP 73, STRESS PERIOD  2 READ UNFORMATTED ON UNIT 10
                    --------------------------------------------------------------------------------------------

 MAXIMUM STEPSIZE DURING WHICH ANY PARTICLE CANNOT MOVE MORE THAN ONE CELL
 =  843.7    (WHEN MIN. R.F.=1)  AT K=   2, I=   5, J=   5

 MAXIMUM STEPSIZE WHICH MEETS STABILITY CRITERION OF THE ADVECTION TERM
 (FOR PURE FINITE-DIFFERENCE OPTION, MIXELM=0) 
 =  267.1    (WHEN MIN. R.F.=1)  AT K=   2, I=   5, J=   5

                    "CNH             " FLOW TERMS FOR TIME STEP 73, STRESS PERIOD  2 READ UNFORMATTED ON UNIT 10
                    --------------------------------------------------------------------------------------------

                    "WEL             " FLOW TERMS FOR TIME STEP 73, STRESS PERIOD  2 READ UNFORMATTED ON UNIT 10
                    --------------------------------------------------------------------------------------------

                    "GHB             " FLOW TERMS FOR TIME STEP 73, STRESS PERIOD  2 READ UNFORMATTED ON UNIT 10
                    --------------------------------------------------------------------------------------------


 TOTAL NUMBER OF POINT SOURCES/SINKS PRESENT IN THE FLOW MODEL =    41

 MAXIMUM STEPSIZE WHICH MEETS STABILITY CRITERION OF THE SINK & SOURCE TERM
 =  180.0    (WHEN MIN. R.F.=1)  AT K=   1, I=   5, J=   5

 MAXIMUM STEPSIZE WHICH MEETS STABILITY CRITERION OF THE DISPERSION TERM
 =  538.1    (WHEN MIN. R.F.=1)  AT K=   1, I=   5, J=   5


     1 CALLS TO GCG PACKAGE FOR TRANSPORT TIME STEP   1 IN FLOW TIME STEP  73 STRESS PERIOD   2
     2 TOTAL ITERATIONS
  MAXIMUM CONCENTRATION CHANGES FOR EACH ITERATION:
  MAX. CHANGE LAYER,ROW,COL MAX. CHANGE LAYER,ROW,COL MAX. CHANGE LAYER,ROW,COL MAX. CHANGE LAYER,ROW,COL MAX. CHANGE LAYER,ROW,COL
 ------------------------------------------------------------------------------------------------------------------------------------
   0.1079E-01 (  1,  5,  5)  0.2910E-10 (  1,  4,  6)


                                          ================================================
                                                         TIME STEP NO.  074
                                          ================================================

 FROM TIME =   74.000     TO    75.000    


                    "THKSAT          " FLOW TERMS FOR TIME STEP 74, STRESS PERIOD  2 READ UNFORMATTED ON UNIT 10
                    --------------------------------------------------------------------------------------------

                    "QXX             " FLOW TERMS FOR TIME STEP 74, STRESS PERIOD  2 READ UNFORMATTED ON UNIT 10
                    --------------------------------------------------------------------------------------------

                    "QYY             " FLOW TERMS FOR TIME STEP 74, STRESS PERIOD  2 READ UNFORMATTED ON UNIT 10
                    --------------------------------------------------------------------------------------------

                    "QZZ             " FLOW TERMS FOR TIME STEP 74, STRESS PERIOD  2 READ UNFORMATTED ON UNIT 10
                    --------------------------------------------------------------------------------------------

                    "STO             " FLOW TERMS FOR TIME STEP 74, STRESS PERIOD  2 READ UNFORMATTED ON UNIT 10
                    --------------------------------------------------------------------------------------------

 MAXIMUM STEPSIZE DURING WHICH ANY PARTICLE CANNOT MOVE MORE THAN ONE CELL
 =  843.6    (WHEN MIN. R.F.=1)  AT K=   2, I=   5, J=   5

 MAXIMUM STEPSIZE WHICH MEETS STABILITY CRITERION OF THE ADVECTION TERM
 (FOR PURE FINITE-DIFFERENCE OPTION, MIXELM=0) 
 =  267.0    (WHEN MIN. R.F.=1)  AT K=   2, I=   5, J=   5

                    "CNH             " FLOW TERMS FOR TIME STEP 74, STRESS PERIOD  2 READ UNFORMATTED ON UNIT 10
                    --------------------------------------------------------------------------------------------

                    "WEL             " FLOW TERMS FOR TIME STEP 74, STRESS PERIOD  2 READ UNFORMATTED ON UNIT 10
                    --------------------------------------------------------------------------------------------

                    "GHB             " FLOW TERMS FOR TIME STEP 74, STRESS PERIOD  2 READ UNFORMATTED ON UNIT 10
                    --------------------------------------------------------------------------------------------


 TOTAL NUMBER OF POINT SOURCES/SINKS PRESENT IN THE FLOW MODEL =    41

 MAXIMUM STEPSIZE WHICH MEETS STABILITY CRITERION OF THE SINK & SOURCE TERM
 =  180.0    (WHEN MIN. R.F.=1)  AT K=   1, I=   5, J=   5

 MAXIMUM STEPSIZE WHICH MEETS STABILITY CRITERION OF THE DISPERSION TERM
 =  538.1    (WHEN MIN. R.F.=1)  AT K=   1, I=   5, J=   5


     1 CALLS TO GCG PACKAGE FOR TRANSPORT TIME STEP   1 IN FLOW TIME STEP  74 STRESS PERIOD   2
     2 TOTAL ITERATIONS
  MAXIMUM CONCENTRATION CHANGES FOR EACH ITERATION:
  MAX. CHANGE LAYER,ROW,COL MAX. CHANGE LAYER,ROW,COL MAX. CHANGE LAYER,ROW,COL MAX. CHANGE LAYER,ROW,COL MAX. CHANGE LAYER,ROW,COL
 ------------------------------------------------------------------------------------------------------------------------------------
   0.1061E-01 (  1,  5,  5)  0.2910E-10 (  1,  4,  6)


                                          ================================================
                                                         TIME STEP NO.  075
                                          ================================================

 FROM TIME =   75.000     TO    76.000    


                    "THKSAT          " FLOW TERMS FOR TIME STEP 75, STRESS PERIOD  2 READ UNFORMATTED ON UNIT 10
                    --------------------------------------------------------------------------------------------

                    "QXX             " FLOW TERMS FOR TIME STEP 75, STRESS PERIOD  2 READ UNFORMATTED ON UNIT 10
                    --------------------------------------------------------------------------------------------

                    "QYY             " FLOW TERMS FOR TIME STEP 75, STRESS PERIOD  2 READ UNFORMATTED ON UNIT 10
                    --------------------------------------------------------------------------------------------

                    "QZZ             " FLOW TERMS FOR TIME STEP 75, STRESS PERIOD  2 READ UNFORMATTED ON UNIT 10
                    --------------------------------------------------------------------------------------------

                    "STO             " FLOW TERMS FOR TIME STEP 75, STRESS PERIOD  2 READ UNFORMATTED ON UNIT 10
                    --------------------------------------------------------------------------------------------

 MAXIMUM STEPSIZE DURING WHICH ANY PARTICLE CANNOT MOVE MORE THAN ONE CELL
 =  843.4    (WHEN MIN. R.F.=1)  AT K=   2, I=   5, J=   5

 MAXIMUM STEPSIZE WHICH MEETS STABILITY CRITERION OF THE ADVECTION TERM
 (FOR PURE FINITE-DIFFERENCE OPTION, MIXELM=0) 
 =  266.9    (WHEN MIN. R.F.=1)  AT K=   2, I=   5, J=   5

                    "CNH             " FLOW TERMS FOR TIME STEP 75, STRESS PERIOD  2 READ UNFORMATTED ON UNIT 10
                    --------------------------------------------------------------------------------------------

                    "WEL             " FLOW TERMS FOR TIME STEP 75, STRESS PERIOD  2 READ UNFORMATTED ON UNIT 10
                    --------------------------------------------------------------------------------------------

                    "GHB             " FLOW TERMS FOR TIME STEP 75, STRESS PERIOD  2 READ UNFORMATTED ON UNIT 10
                    --------------------------------------------------------------------------------------------


 TOTAL NUMBER OF POINT SOURCES/SINKS PRESENT IN THE FLOW MODEL =    41

 MAXIMUM STEPSIZE WHICH MEETS STABILITY CRITERION OF THE SINK & SOURCE TERM
 =  180.0    (WHEN MIN. R.F.=1)  AT K=   1, I=   5, J=   5

 MAXIMUM STEPSIZE WHICH MEETS STABILITY CRITERION OF THE DISPERSION TERM
 =  538.1    (WHEN MIN. R.F.=1)  AT K=   1, I=   5, J=   5


     1 CALLS TO GCG PACKAGE FOR TRANSPORT TIME STEP   1 IN FLOW TIME STEP  75 STRESS PERIOD   2
     2 TOTAL ITERATIONS
  MAXIMUM CONCENTRATION CHANGES FOR EACH ITERATION:
  MAX. CHANGE LAYER,ROW,COL MAX. CHANGE LAYER,ROW,COL MAX. CHANGE LAYER,ROW,COL MAX. CHANGE LAYER,ROW,COL MAX. CHANGE LAYER,ROW,COL
 ------------------------------------------------------------------------------------------------------------------------------------
   0.1043E-01 (  1,  5,  5)  0.2910E-10 (  1,  4,  6)


                                          ================================================
                                                         TIME STEP NO.  076
                                          ================================================

 FROM TIME =   76.000     TO    77.000    


                    "THKSAT          " FLOW TERMS FOR TIME STEP 76, STRESS PERIOD  2 READ UNFORMATTED ON UNIT 10
                    --------------------------------------------------------------------------------------------

                    "QXX             " FLOW TERMS FOR TIME STEP 76, STRESS PERIOD  2 READ UNFORMATTED ON UNIT 10
                    --------------------------------------------------------------------------------------------

                    "QYY             " FLOW TERMS FOR TIME STEP 76, STRESS PERIOD  2 READ UNFORMATTED ON UNIT 10
                    --------------------------------------------------------------------------------------------

                    "QZZ             " FLOW TERMS FOR TIME STEP 76, STRESS PERIOD  2 READ UNFORMATTED ON UNIT 10
                    --------------------------------------------------------------------------------------------

                    "STO             " FLOW TERMS FOR TIME STEP 76, STRESS PERIOD  2 READ UNFORMATTED ON UNIT 10
                    --------------------------------------------------------------------------------------------

 MAXIMUM STEPSIZE DURING WHICH ANY PARTICLE CANNOT MOVE MORE THAN ONE CELL
 =  843.3    (WHEN MIN. R.F.=1)  AT K=   2, I=   5, J=   5

 MAXIMUM STEPSIZE WHICH MEETS STABILITY CRITERION OF THE ADVECTION TERM
 (FOR PURE FINITE-DIFFERENCE OPTION, MIXELM=0) 
 =  266.8    (WHEN MIN. R.F.=1)  AT K=   2, I=   5, J=   5

                    "CNH             " FLOW TERMS FOR TIME STEP 76, STRESS PERIOD  2 READ UNFORMATTED ON UNIT 10
                    --------------------------------------------------------------------------------------------

                    "WEL             " FLOW TERMS FOR TIME STEP 76, STRESS PERIOD  2 READ UNFORMATTED ON UNIT 10
                    --------------------------------------------------------------------------------------------

                    "GHB             " FLOW TERMS FOR TIME STEP 76, STRESS PERIOD  2 READ UNFORMATTED ON UNIT 10
                    --------------------------------------------------------------------------------------------


 TOTAL NUMBER OF POINT SOURCES/SINKS PRESENT IN THE FLOW MODEL =    41

 MAXIMUM STEPSIZE WHICH MEETS STABILITY CRITERION OF THE SINK & SOURCE TERM
 =  180.0    (WHEN MIN. R.F.=1)  AT K=   1, I=   5, J=   5

 MAXIMUM STEPSIZE WHICH MEETS STABILITY CRITERION OF THE DISPERSION TERM
 =  538.1    (WHEN MIN. R.F.=1)  AT K=   1, I=   5, J=   5


     1 CALLS TO GCG PACKAGE FOR TRANSPORT TIME STEP   1 IN FLOW TIME STEP  76 STRESS PERIOD   2
     2 TOTAL ITERATIONS
  MAXIMUM CONCENTRATION CHANGES FOR EACH ITERATION:
  MAX. CHANGE LAYER,ROW,COL MAX. CHANGE LAYER,ROW,COL MAX. CHANGE LAYER,ROW,COL MAX. CHANGE LAYER,ROW,COL MAX. CHANGE LAYER,ROW,COL
 ------------------------------------------------------------------------------------------------------------------------------------
   0.1025E-01 (  1,  5,  5)  0.2910E-10 (  1,  4,  6)


                                          ================================================
                                                         TIME STEP NO.  077
                                          ================================================

 FROM TIME =   77.000     TO    78.000    


                    "THKSAT          " FLOW TERMS FOR TIME STEP 77, STRESS PERIOD  2 READ UNFORMATTED ON UNIT 10
                    --------------------------------------------------------------------------------------------

                    "QXX             " FLOW TERMS FOR TIME STEP 77, STRESS PERIOD  2 READ UNFORMATTED ON UNIT 10
                    --------------------------------------------------------------------------------------------

                    "QYY             " FLOW TERMS FOR TIME STEP 77, STRESS PERIOD  2 READ UNFORMATTED ON UNIT 10
                    --------------------------------------------------------------------------------------------

                    "QZZ             " FLOW TERMS FOR TIME STEP 77, STRESS PERIOD  2 READ UNFORMATTED ON UNIT 10
                    --------------------------------------------------------------------------------------------

                    "STO             " FLOW TERMS FOR TIME STEP 77, STRESS PERIOD  2 READ UNFORMATTED ON UNIT 10
                    --------------------------------------------------------------------------------------------

 MAXIMUM STEPSIZE DURING WHICH ANY PARTICLE CANNOT MOVE MORE THAN ONE CELL
 =  843.2    (WHEN MIN. R.F.=1)  AT K=   2, I=   5, J=   5

 MAXIMUM STEPSIZE WHICH MEETS STABILITY CRITERION OF THE ADVECTION TERM
 (FOR PURE FINITE-DIFFERENCE OPTION, MIXELM=0) 
 =  266.7    (WHEN MIN. R.F.=1)  AT K=   2, I=   5, J=   5

                    "CNH             " FLOW TERMS FOR TIME STEP 77, STRESS PERIOD  2 READ UNFORMATTED ON UNIT 10
                    --------------------------------------------------------------------------------------------

                    "WEL             " FLOW TERMS FOR TIME STEP 77, STRESS PERIOD  2 READ UNFORMATTED ON UNIT 10
                    --------------------------------------------------------------------------------------------

                    "GHB             " FLOW TERMS FOR TIME STEP 77, STRESS PERIOD  2 READ UNFORMATTED ON UNIT 10
                    --------------------------------------------------------------------------------------------


 TOTAL NUMBER OF POINT SOURCES/SINKS PRESENT IN THE FLOW MODEL =    41

 MAXIMUM STEPSIZE WHICH MEETS STABILITY CRITERION OF THE SINK & SOURCE TERM
 =  180.0    (WHEN MIN. R.F.=1)  AT K=   1, I=   5, J=   5

 MAXIMUM STEPSIZE WHICH MEETS STABILITY CRITERION OF THE DISPERSION TERM
 =  538.1    (WHEN MIN. R.F.=1)  AT K=   1, I=   5, J=   5


     1 CALLS TO GCG PACKAGE FOR TRANSPORT TIME STEP   1 IN FLOW TIME STEP  77 STRESS PERIOD   2
     2 TOTAL ITERATIONS
  MAXIMUM CONCENTRATION CHANGES FOR EACH ITERATION:
  MAX. CHANGE LAYER,ROW,COL MAX. CHANGE LAYER,ROW,COL MAX. CHANGE LAYER,ROW,COL MAX. CHANGE LAYER,ROW,COL MAX. CHANGE LAYER,ROW,COL
 ------------------------------------------------------------------------------------------------------------------------------------
   0.1008E-01 (  1,  5,  5)  0.2910E-10 (  1,  4,  6)


                                          ================================================
                                                         TIME STEP NO.  078
                                          ================================================

 FROM TIME =   78.000     TO    79.000    


                    "THKSAT          " FLOW TERMS FOR TIME STEP 78, STRESS PERIOD  2 READ UNFORMATTED ON UNIT 10
                    --------------------------------------------------------------------------------------------

                    "QXX             " FLOW TERMS FOR TIME STEP 78, STRESS PERIOD  2 READ UNFORMATTED ON UNIT 10
                    --------------------------------------------------------------------------------------------

                    "QYY             " FLOW TERMS FOR TIME STEP 78, STRESS PERIOD  2 READ UNFORMATTED ON UNIT 10
                    --------------------------------------------------------------------------------------------

                    "QZZ             " FLOW TERMS FOR TIME STEP 78, STRESS PERIOD  2 READ UNFORMATTED ON UNIT 10
                    --------------------------------------------------------------------------------------------

                    "STO             " FLOW TERMS FOR TIME STEP 78, STRESS PERIOD  2 READ UNFORMATTED ON UNIT 10
                    --------------------------------------------------------------------------------------------

 MAXIMUM STEPSIZE DURING WHICH ANY PARTICLE CANNOT MOVE MORE THAN ONE CELL
 =  843.1    (WHEN MIN. R.F.=1)  AT K=   2, I=   5, J=   5

 MAXIMUM STEPSIZE WHICH MEETS STABILITY CRITERION OF THE ADVECTION TERM
 (FOR PURE FINITE-DIFFERENCE OPTION, MIXELM=0) 
 =  266.6    (WHEN MIN. R.F.=1)  AT K=   2, I=   5, J=   5

                    "CNH             " FLOW TERMS FOR TIME STEP 78, STRESS PERIOD  2 READ UNFORMATTED ON UNIT 10
                    --------------------------------------------------------------------------------------------

                    "WEL             " FLOW TERMS FOR TIME STEP 78, STRESS PERIOD  2 READ UNFORMATTED ON UNIT 10
                    --------------------------------------------------------------------------------------------

                    "GHB             " FLOW TERMS FOR TIME STEP 78, STRESS PERIOD  2 READ UNFORMATTED ON UNIT 10
                    --------------------------------------------------------------------------------------------


 TOTAL NUMBER OF POINT SOURCES/SINKS PRESENT IN THE FLOW MODEL =    41

 MAXIMUM STEPSIZE WHICH MEETS STABILITY CRITERION OF THE SINK & SOURCE TERM
 =  180.0    (WHEN MIN. R.F.=1)  AT K=   1, I=   5, J=   5

 MAXIMUM STEPSIZE WHICH MEETS STABILITY CRITERION OF THE DISPERSION TERM
 =  538.1    (WHEN MIN. R.F.=1)  AT K=   1, I=   5, J=   5


     1 CALLS TO GCG PACKAGE FOR TRANSPORT TIME STEP   1 IN FLOW TIME STEP  78 STRESS PERIOD   2
     2 TOTAL ITERATIONS
  MAXIMUM CONCENTRATION CHANGES FOR EACH ITERATION:
  MAX. CHANGE LAYER,ROW,COL MAX. CHANGE LAYER,ROW,COL MAX. CHANGE LAYER,ROW,COL MAX. CHANGE LAYER,ROW,COL MAX. CHANGE LAYER,ROW,COL
 ------------------------------------------------------------------------------------------------------------------------------------
   0.9913E-02 (  1,  5,  5)  0.2910E-10 (  1,  4,  6)


                                          ================================================
                                                         TIME STEP NO.  079
                                          ================================================

 FROM TIME =   79.000     TO    80.000    


                    "THKSAT          " FLOW TERMS FOR TIME STEP 79, STRESS PERIOD  2 READ UNFORMATTED ON UNIT 10
                    --------------------------------------------------------------------------------------------

                    "QXX             " FLOW TERMS FOR TIME STEP 79, STRESS PERIOD  2 READ UNFORMATTED ON UNIT 10
                    --------------------------------------------------------------------------------------------

                    "QYY             " FLOW TERMS FOR TIME STEP 79, STRESS PERIOD  2 READ UNFORMATTED ON UNIT 10
                    --------------------------------------------------------------------------------------------

                    "QZZ             " FLOW TERMS FOR TIME STEP 79, STRESS PERIOD  2 READ UNFORMATTED ON UNIT 10
                    --------------------------------------------------------------------------------------------

                    "STO             " FLOW TERMS FOR TIME STEP 79, STRESS PERIOD  2 READ UNFORMATTED ON UNIT 10
                    --------------------------------------------------------------------------------------------

 MAXIMUM STEPSIZE DURING WHICH ANY PARTICLE CANNOT MOVE MORE THAN ONE CELL
 =  843.0    (WHEN MIN. R.F.=1)  AT K=   2, I=   5, J=   5

 MAXIMUM STEPSIZE WHICH MEETS STABILITY CRITERION OF THE ADVECTION TERM
 (FOR PURE FINITE-DIFFERENCE OPTION, MIXELM=0) 
 =  266.5    (WHEN MIN. R.F.=1)  AT K=   2, I=   5, J=   5

                    "CNH             " FLOW TERMS FOR TIME STEP 79, STRESS PERIOD  2 READ UNFORMATTED ON UNIT 10
                    --------------------------------------------------------------------------------------------

                    "WEL             " FLOW TERMS FOR TIME STEP 79, STRESS PERIOD  2 READ UNFORMATTED ON UNIT 10
                    --------------------------------------------------------------------------------------------

                    "GHB             " FLOW TERMS FOR TIME STEP 79, STRESS PERIOD  2 READ UNFORMATTED ON UNIT 10
                    --------------------------------------------------------------------------------------------


 TOTAL NUMBER OF POINT SOURCES/SINKS PRESENT IN THE FLOW MODEL =    41

 MAXIMUM STEPSIZE WHICH MEETS STABILITY CRITERION OF THE SINK & SOURCE TERM
 =  180.0    (WHEN MIN. R.F.=1)  AT K=   1, I=   5, J=   5

 MAXIMUM STEPSIZE WHICH MEETS STABILITY CRITERION OF THE DISPERSION TERM
 =  538.2    (WHEN MIN. R.F.=1)  AT K=   1, I=   5, J=   5


     1 CALLS TO GCG PACKAGE FOR TRANSPORT TIME STEP   1 IN FLOW TIME STEP  79 STRESS PERIOD   2
     2 TOTAL ITERATIONS
  MAXIMUM CONCENTRATION CHANGES FOR EACH ITERATION:
  MAX. CHANGE LAYER,ROW,COL MAX. CHANGE LAYER,ROW,COL MAX. CHANGE LAYER,ROW,COL MAX. CHANGE LAYER,ROW,COL MAX. CHANGE LAYER,ROW,COL
 ------------------------------------------------------------------------------------------------------------------------------------
   0.9751E-02 (  1,  5,  5)  0.2910E-10 (  1,  4,  6)


                                          ================================================
                                                         TIME STEP NO.  080
                                          ================================================

 FROM TIME =   80.000     TO    81.000    


                    "THKSAT          " FLOW TERMS FOR TIME STEP 80, STRESS PERIOD  2 READ UNFORMATTED ON UNIT 10
                    --------------------------------------------------------------------------------------------

                    "QXX             " FLOW TERMS FOR TIME STEP 80, STRESS PERIOD  2 READ UNFORMATTED ON UNIT 10
                    --------------------------------------------------------------------------------------------

                    "QYY             " FLOW TERMS FOR TIME STEP 80, STRESS PERIOD  2 READ UNFORMATTED ON UNIT 10
                    --------------------------------------------------------------------------------------------

                    "QZZ             " FLOW TERMS FOR TIME STEP 80, STRESS PERIOD  2 READ UNFORMATTED ON UNIT 10
                    --------------------------------------------------------------------------------------------

                    "STO             " FLOW TERMS FOR TIME STEP 80, STRESS PERIOD  2 READ UNFORMATTED ON UNIT 10
                    --------------------------------------------------------------------------------------------

 MAXIMUM STEPSIZE DURING WHICH ANY PARTICLE CANNOT MOVE MORE THAN ONE CELL
 =  842.9    (WHEN MIN. R.F.=1)  AT K=   2, I=   5, J=   5

 MAXIMUM STEPSIZE WHICH MEETS STABILITY CRITERION OF THE ADVECTION TERM
 (FOR PURE FINITE-DIFFERENCE OPTION, MIXELM=0) 
 =  266.4    (WHEN MIN. R.F.=1)  AT K=   2, I=   5, J=   5

                    "CNH             " FLOW TERMS FOR TIME STEP 80, STRESS PERIOD  2 READ UNFORMATTED ON UNIT 10
                    --------------------------------------------------------------------------------------------

                    "WEL             " FLOW TERMS FOR TIME STEP 80, STRESS PERIOD  2 READ UNFORMATTED ON UNIT 10
                    --------------------------------------------------------------------------------------------

                    "GHB             " FLOW TERMS FOR TIME STEP 80, STRESS PERIOD  2 READ UNFORMATTED ON UNIT 10
                    --------------------------------------------------------------------------------------------


 TOTAL NUMBER OF POINT SOURCES/SINKS PRESENT IN THE FLOW MODEL =    41

 MAXIMUM STEPSIZE WHICH MEETS STABILITY CRITERION OF THE SINK & SOURCE TERM
 =  180.0    (WHEN MIN. R.F.=1)  AT K=   1, I=   5, J=   5

 MAXIMUM STEPSIZE WHICH MEETS STABILITY CRITERION OF THE DISPERSION TERM
 =  538.2    (WHEN MIN. R.F.=1)  AT K=   1, I=   5, J=   5


     1 CALLS TO GCG PACKAGE FOR TRANSPORT TIME STEP   1 IN FLOW TIME STEP  80 STRESS PERIOD   2
     2 TOTAL ITERATIONS
  MAXIMUM CONCENTRATION CHANGES FOR EACH ITERATION:
  MAX. CHANGE LAYER,ROW,COL MAX. CHANGE LAYER,ROW,COL MAX. CHANGE LAYER,ROW,COL MAX. CHANGE LAYER,ROW,COL MAX. CHANGE LAYER,ROW,COL
 ------------------------------------------------------------------------------------------------------------------------------------
   0.9593E-02 (  1,  5,  5)  0.2910E-10 (  1,  4,  6)


                                          ================================================
                                                         TIME STEP NO.  081
                                          ================================================

 FROM TIME =   81.000     TO    82.000    


                    "THKSAT          " FLOW TERMS FOR TIME STEP 81, STRESS PERIOD  2 READ UNFORMATTED ON UNIT 10
                    --------------------------------------------------------------------------------------------

                    "QXX             " FLOW TERMS FOR TIME STEP 81, STRESS PERIOD  2 READ UNFORMATTED ON UNIT 10
                    --------------------------------------------------------------------------------------------

                    "QYY             " FLOW TERMS FOR TIME STEP 81, STRESS PERIOD  2 READ UNFORMATTED ON UNIT 10
                    --------------------------------------------------------------------------------------------

                    "QZZ             " FLOW TERMS FOR TIME STEP 81, STRESS PERIOD  2 READ UNFORMATTED ON UNIT 10
                    --------------------------------------------------------------------------------------------

                    "STO             " FLOW TERMS FOR TIME STEP 81, STRESS PERIOD  2 READ UNFORMATTED ON UNIT 10
                    --------------------------------------------------------------------------------------------

 MAXIMUM STEPSIZE DURING WHICH ANY PARTICLE CANNOT MOVE MORE THAN ONE CELL
 =  842.8    (WHEN MIN. R.F.=1)  AT K=   2, I=   5, J=   5

 MAXIMUM STEPSIZE WHICH MEETS STABILITY CRITERION OF THE ADVECTION TERM
 (FOR PURE FINITE-DIFFERENCE OPTION, MIXELM=0) 
 =  266.3    (WHEN MIN. R.F.=1)  AT K=   2, I=   5, J=   5

                    "CNH             " FLOW TERMS FOR TIME STEP 81, STRESS PERIOD  2 READ UNFORMATTED ON UNIT 10
                    --------------------------------------------------------------------------------------------

                    "WEL             " FLOW TERMS FOR TIME STEP 81, STRESS PERIOD  2 READ UNFORMATTED ON UNIT 10
                    --------------------------------------------------------------------------------------------

                    "GHB             " FLOW TERMS FOR TIME STEP 81, STRESS PERIOD  2 READ UNFORMATTED ON UNIT 10
                    --------------------------------------------------------------------------------------------


 TOTAL NUMBER OF POINT SOURCES/SINKS PRESENT IN THE FLOW MODEL =    41

 MAXIMUM STEPSIZE WHICH MEETS STABILITY CRITERION OF THE SINK & SOURCE TERM
 =  180.0    (WHEN MIN. R.F.=1)  AT K=   1, I=   5, J=   5

 MAXIMUM STEPSIZE WHICH MEETS STABILITY CRITERION OF THE DISPERSION TERM
 =  538.3    (WHEN MIN. R.F.=1)  AT K=   1, I=   5, J=   5


     1 CALLS TO GCG PACKAGE FOR TRANSPORT TIME STEP   1 IN FLOW TIME STEP  81 STRESS PERIOD   2
     2 TOTAL ITERATIONS
  MAXIMUM CONCENTRATION CHANGES FOR EACH ITERATION:
  MAX. CHANGE LAYER,ROW,COL MAX. CHANGE LAYER,ROW,COL MAX. CHANGE LAYER,ROW,COL MAX. CHANGE LAYER,ROW,COL MAX. CHANGE LAYER,ROW,COL
 ------------------------------------------------------------------------------------------------------------------------------------
   0.9439E-02 (  1,  5,  5)  0.2910E-10 (  1,  4,  6)


                                          ================================================
                                                         TIME STEP NO.  082
                                          ================================================

 FROM TIME =   82.000     TO    83.000    


                    "THKSAT          " FLOW TERMS FOR TIME STEP 82, STRESS PERIOD  2 READ UNFORMATTED ON UNIT 10
                    --------------------------------------------------------------------------------------------

                    "QXX             " FLOW TERMS FOR TIME STEP 82, STRESS PERIOD  2 READ UNFORMATTED ON UNIT 10
                    --------------------------------------------------------------------------------------------

                    "QYY             " FLOW TERMS FOR TIME STEP 82, STRESS PERIOD  2 READ UNFORMATTED ON UNIT 10
                    --------------------------------------------------------------------------------------------

                    "QZZ             " FLOW TERMS FOR TIME STEP 82, STRESS PERIOD  2 READ UNFORMATTED ON UNIT 10
                    --------------------------------------------------------------------------------------------

                    "STO             " FLOW TERMS FOR TIME STEP 82, STRESS PERIOD  2 READ UNFORMATTED ON UNIT 10
                    --------------------------------------------------------------------------------------------

 MAXIMUM STEPSIZE DURING WHICH ANY PARTICLE CANNOT MOVE MORE THAN ONE CELL
 =  842.8    (WHEN MIN. R.F.=1)  AT K=   2, I=   5, J=   5

 MAXIMUM STEPSIZE WHICH MEETS STABILITY CRITERION OF THE ADVECTION TERM
 (FOR PURE FINITE-DIFFERENCE OPTION, MIXELM=0) 
 =  266.2    (WHEN MIN. R.F.=1)  AT K=   2, I=   5, J=   5

                    "CNH             " FLOW TERMS FOR TIME STEP 82, STRESS PERIOD  2 READ UNFORMATTED ON UNIT 10
                    --------------------------------------------------------------------------------------------

                    "WEL             " FLOW TERMS FOR TIME STEP 82, STRESS PERIOD  2 READ UNFORMATTED ON UNIT 10
                    --------------------------------------------------------------------------------------------

                    "GHB             " FLOW TERMS FOR TIME STEP 82, STRESS PERIOD  2 READ UNFORMATTED ON UNIT 10
                    --------------------------------------------------------------------------------------------


 TOTAL NUMBER OF POINT SOURCES/SINKS PRESENT IN THE FLOW MODEL =    41

 MAXIMUM STEPSIZE WHICH MEETS STABILITY CRITERION OF THE SINK & SOURCE TERM
 =  180.0    (WHEN MIN. R.F.=1)  AT K=   1, I=   5, J=   5

 MAXIMUM STEPSIZE WHICH MEETS STABILITY CRITERION OF THE DISPERSION TERM
 =  538.3    (WHEN MIN. R.F.=1)  AT K=   1, I=   5, J=   5


     1 CALLS TO GCG PACKAGE FOR TRANSPORT TIME STEP   1 IN FLOW TIME STEP  82 STRESS PERIOD   2
     2 TOTAL ITERATIONS
  MAXIMUM CONCENTRATION CHANGES FOR EACH ITERATION:
  MAX. CHANGE LAYER,ROW,COL MAX. CHANGE LAYER,ROW,COL MAX. CHANGE LAYER,ROW,COL MAX. CHANGE LAYER,ROW,COL MAX. CHANGE LAYER,ROW,COL
 ------------------------------------------------------------------------------------------------------------------------------------
   0.9289E-02 (  1,  5,  5)  0.2910E-10 (  1,  4,  6)


                                          ================================================
                                                         TIME STEP NO.  083
                                          ================================================

 FROM TIME =   83.000     TO    84.000    


                    "THKSAT          " FLOW TERMS FOR TIME STEP 83, STRESS PERIOD  2 READ UNFORMATTED ON UNIT 10
                    --------------------------------------------------------------------------------------------

                    "QXX             " FLOW TERMS FOR TIME STEP 83, STRESS PERIOD  2 READ UNFORMATTED ON UNIT 10
                    --------------------------------------------------------------------------------------------

                    "QYY             " FLOW TERMS FOR TIME STEP 83, STRESS PERIOD  2 READ UNFORMATTED ON UNIT 10
                    --------------------------------------------------------------------------------------------

                    "QZZ             " FLOW TERMS FOR TIME STEP 83, STRESS PERIOD  2 READ UNFORMATTED ON UNIT 10
                    --------------------------------------------------------------------------------------------

                    "STO             " FLOW TERMS FOR TIME STEP 83, STRESS PERIOD  2 READ UNFORMATTED ON UNIT 10
                    --------------------------------------------------------------------------------------------

 MAXIMUM STEPSIZE DURING WHICH ANY PARTICLE CANNOT MOVE MORE THAN ONE CELL
 =  842.7    (WHEN MIN. R.F.=1)  AT K=   2, I=   5, J=   5

 MAXIMUM STEPSIZE WHICH MEETS STABILITY CRITERION OF THE ADVECTION TERM
 (FOR PURE FINITE-DIFFERENCE OPTION, MIXELM=0) 
 =  266.1    (WHEN MIN. R.F.=1)  AT K=   2, I=   5, J=   5

                    "CNH             " FLOW TERMS FOR TIME STEP 83, STRESS PERIOD  2 READ UNFORMATTED ON UNIT 10
                    --------------------------------------------------------------------------------------------

                    "WEL             " FLOW TERMS FOR TIME STEP 83, STRESS PERIOD  2 READ UNFORMATTED ON UNIT 10
                    --------------------------------------------------------------------------------------------

                    "GHB             " FLOW TERMS FOR TIME STEP 83, STRESS PERIOD  2 READ UNFORMATTED ON UNIT 10
                    --------------------------------------------------------------------------------------------


 TOTAL NUMBER OF POINT SOURCES/SINKS PRESENT IN THE FLOW MODEL =    41

 MAXIMUM STEPSIZE WHICH MEETS STABILITY CRITERION OF THE SINK & SOURCE TERM
 =  180.0    (WHEN MIN. R.F.=1)  AT K=   1, I=   5, J=   5

 MAXIMUM STEPSIZE WHICH MEETS STABILITY CRITERION OF THE DISPERSION TERM
 =  538.4    (WHEN MIN. R.F.=1)  AT K=   1, I=   5, J=   5


     1 CALLS TO GCG PACKAGE FOR TRANSPORT TIME STEP   1 IN FLOW TIME STEP  83 STRESS PERIOD   2
     2 TOTAL ITERATIONS
  MAXIMUM CONCENTRATION CHANGES FOR EACH ITERATION:
  MAX. CHANGE LAYER,ROW,COL MAX. CHANGE LAYER,ROW,COL MAX. CHANGE LAYER,ROW,COL MAX. CHANGE LAYER,ROW,COL MAX. CHANGE LAYER,ROW,COL
 ------------------------------------------------------------------------------------------------------------------------------------
   0.9143E-02 (  1,  5,  5)  0.2910E-10 (  1,  4,  6)


                                          ================================================
                                                         TIME STEP NO.  084
                                          ================================================

 FROM TIME =   84.000     TO    85.000    


                    "THKSAT          " FLOW TERMS FOR TIME STEP 84, STRESS PERIOD  2 READ UNFORMATTED ON UNIT 10
                    --------------------------------------------------------------------------------------------

                    "QXX             " FLOW TERMS FOR TIME STEP 84, STRESS PERIOD  2 READ UNFORMATTED ON UNIT 10
                    --------------------------------------------------------------------------------------------

                    "QYY             " FLOW TERMS FOR TIME STEP 84, STRESS PERIOD  2 READ UNFORMATTED ON UNIT 10
                    --------------------------------------------------------------------------------------------

                    "QZZ             " FLOW TERMS FOR TIME STEP 84, STRESS PERIOD  2 READ UNFORMATTED ON UNIT 10
                    --------------------------------------------------------------------------------------------

                    "STO             " FLOW TERMS FOR TIME STEP 84, STRESS PERIOD  2 READ UNFORMATTED ON UNIT 10
                    --------------------------------------------------------------------------------------------

 MAXIMUM STEPSIZE DURING WHICH ANY PARTICLE CANNOT MOVE MORE THAN ONE CELL
 =  842.6    (WHEN MIN. R.F.=1)  AT K=   2, I=   5, J=   5

 MAXIMUM STEPSIZE WHICH MEETS STABILITY CRITERION OF THE ADVECTION TERM
 (FOR PURE FINITE-DIFFERENCE OPTION, MIXELM=0) 
 =  266.0    (WHEN MIN. R.F.=1)  AT K=   2, I=   5, J=   5

                    "CNH             " FLOW TERMS FOR TIME STEP 84, STRESS PERIOD  2 READ UNFORMATTED ON UNIT 10
                    --------------------------------------------------------------------------------------------

                    "WEL             " FLOW TERMS FOR TIME STEP 84, STRESS PERIOD  2 READ UNFORMATTED ON UNIT 10
                    --------------------------------------------------------------------------------------------

                    "GHB             " FLOW TERMS FOR TIME STEP 84, STRESS PERIOD  2 READ UNFORMATTED ON UNIT 10
                    --------------------------------------------------------------------------------------------


 TOTAL NUMBER OF POINT SOURCES/SINKS PRESENT IN THE FLOW MODEL =    41

 MAXIMUM STEPSIZE WHICH MEETS STABILITY CRITERION OF THE SINK & SOURCE TERM
 =  180.0    (WHEN MIN. R.F.=1)  AT K=   1, I=   5, J=   5

 MAXIMUM STEPSIZE WHICH MEETS STABILITY CRITERION OF THE DISPERSION TERM
 =  538.5    (WHEN MIN. R.F.=1)  AT K=   1, I=   5, J=   5


     1 CALLS TO GCG PACKAGE FOR TRANSPORT TIME STEP   1 IN FLOW TIME STEP  84 STRESS PERIOD   2
     2 TOTAL ITERATIONS
  MAXIMUM CONCENTRATION CHANGES FOR EACH ITERATION:
  MAX. CHANGE LAYER,ROW,COL MAX. CHANGE LAYER,ROW,COL MAX. CHANGE LAYER,ROW,COL MAX. CHANGE LAYER,ROW,COL MAX. CHANGE LAYER,ROW,COL
 ------------------------------------------------------------------------------------------------------------------------------------
   0.9001E-02 (  1,  5,  5)  0.2910E-10 (  1,  4,  6)


                                          ================================================
                                                         TIME STEP NO.  085
                                          ================================================

 FROM TIME =   85.000     TO    86.000    


                    "THKSAT          " FLOW TERMS FOR TIME STEP 85, STRESS PERIOD  2 READ UNFORMATTED ON UNIT 10
                    --------------------------------------------------------------------------------------------

                    "QXX             " FLOW TERMS FOR TIME STEP 85, STRESS PERIOD  2 READ UNFORMATTED ON UNIT 10
                    --------------------------------------------------------------------------------------------

                    "QYY             " FLOW TERMS FOR TIME STEP 85, STRESS PERIOD  2 READ UNFORMATTED ON UNIT 10
                    --------------------------------------------------------------------------------------------

                    "QZZ             " FLOW TERMS FOR TIME STEP 85, STRESS PERIOD  2 READ UNFORMATTED ON UNIT 10
                    --------------------------------------------------------------------------------------------

                    "STO             " FLOW TERMS FOR TIME STEP 85, STRESS PERIOD  2 READ UNFORMATTED ON UNIT 10
                    --------------------------------------------------------------------------------------------

 MAXIMUM STEPSIZE DURING WHICH ANY PARTICLE CANNOT MOVE MORE THAN ONE CELL
 =  842.6    (WHEN MIN. R.F.=1)  AT K=   2, I=   5, J=   5

 MAXIMUM STEPSIZE WHICH MEETS STABILITY CRITERION OF THE ADVECTION TERM
 (FOR PURE FINITE-DIFFERENCE OPTION, MIXELM=0) 
 =  265.9    (WHEN MIN. R.F.=1)  AT K=   2, I=   5, J=   5

                    "CNH             " FLOW TERMS FOR TIME STEP 85, STRESS PERIOD  2 READ UNFORMATTED ON UNIT 10
                    --------------------------------------------------------------------------------------------

                    "WEL             " FLOW TERMS FOR TIME STEP 85, STRESS PERIOD  2 READ UNFORMATTED ON UNIT 10
                    --------------------------------------------------------------------------------------------

                    "GHB             " FLOW TERMS FOR TIME STEP 85, STRESS PERIOD  2 READ UNFORMATTED ON UNIT 10
                    --------------------------------------------------------------------------------------------


 TOTAL NUMBER OF POINT SOURCES/SINKS PRESENT IN THE FLOW MODEL =    41

 MAXIMUM STEPSIZE WHICH MEETS STABILITY CRITERION OF THE SINK & SOURCE TERM
 =  180.0    (WHEN MIN. R.F.=1)  AT K=   1, I=   5, J=   5

 MAXIMUM STEPSIZE WHICH MEETS STABILITY CRITERION OF THE DISPERSION TERM
 =  538.6    (WHEN MIN. R.F.=1)  AT K=   1, I=   5, J=   5


     1 CALLS TO GCG PACKAGE FOR TRANSPORT TIME STEP   1 IN FLOW TIME STEP  85 STRESS PERIOD   2
     2 TOTAL ITERATIONS
  MAXIMUM CONCENTRATION CHANGES FOR EACH ITERATION:
  MAX. CHANGE LAYER,ROW,COL MAX. CHANGE LAYER,ROW,COL MAX. CHANGE LAYER,ROW,COL MAX. CHANGE LAYER,ROW,COL MAX. CHANGE LAYER,ROW,COL
 ------------------------------------------------------------------------------------------------------------------------------------
   0.8862E-02 (  1,  5,  5)  0.2910E-10 (  1,  4,  6)


                                          ================================================
                                                         TIME STEP NO.  086
                                          ================================================

 FROM TIME =   86.000     TO    87.000    


                    "THKSAT          " FLOW TERMS FOR TIME STEP 86, STRESS PERIOD  2 READ UNFORMATTED ON UNIT 10
                    --------------------------------------------------------------------------------------------

                    "QXX             " FLOW TERMS FOR TIME STEP 86, STRESS PERIOD  2 READ UNFORMATTED ON UNIT 10
                    --------------------------------------------------------------------------------------------

                    "QYY             " FLOW TERMS FOR TIME STEP 86, STRESS PERIOD  2 READ UNFORMATTED ON UNIT 10
                    --------------------------------------------------------------------------------------------

                    "QZZ             " FLOW TERMS FOR TIME STEP 86, STRESS PERIOD  2 READ UNFORMATTED ON UNIT 10
                    --------------------------------------------------------------------------------------------

                    "STO             " FLOW TERMS FOR TIME STEP 86, STRESS PERIOD  2 READ UNFORMATTED ON UNIT 10
                    --------------------------------------------------------------------------------------------

 MAXIMUM STEPSIZE DURING WHICH ANY PARTICLE CANNOT MOVE MORE THAN ONE CELL
 =  842.5    (WHEN MIN. R.F.=1)  AT K=   2, I=   5, J=   5

 MAXIMUM STEPSIZE WHICH MEETS STABILITY CRITERION OF THE ADVECTION TERM
 (FOR PURE FINITE-DIFFERENCE OPTION, MIXELM=0) 
 =  265.8    (WHEN MIN. R.F.=1)  AT K=   2, I=   5, J=   5

                    "CNH             " FLOW TERMS FOR TIME STEP 86, STRESS PERIOD  2 READ UNFORMATTED ON UNIT 10
                    --------------------------------------------------------------------------------------------

                    "WEL             " FLOW TERMS FOR TIME STEP 86, STRESS PERIOD  2 READ UNFORMATTED ON UNIT 10
                    --------------------------------------------------------------------------------------------

                    "GHB             " FLOW TERMS FOR TIME STEP 86, STRESS PERIOD  2 READ UNFORMATTED ON UNIT 10
                    --------------------------------------------------------------------------------------------


 TOTAL NUMBER OF POINT SOURCES/SINKS PRESENT IN THE FLOW MODEL =    41

 MAXIMUM STEPSIZE WHICH MEETS STABILITY CRITERION OF THE SINK & SOURCE TERM
 =  180.0    (WHEN MIN. R.F.=1)  AT K=   1, I=   5, J=   5

 MAXIMUM STEPSIZE WHICH MEETS STABILITY CRITERION OF THE DISPERSION TERM
 =  538.6    (WHEN MIN. R.F.=1)  AT K=   1, I=   5, J=   5


     1 CALLS TO GCG PACKAGE FOR TRANSPORT TIME STEP   1 IN FLOW TIME STEP  86 STRESS PERIOD   2
     2 TOTAL ITERATIONS
  MAXIMUM CONCENTRATION CHANGES FOR EACH ITERATION:
  MAX. CHANGE LAYER,ROW,COL MAX. CHANGE LAYER,ROW,COL MAX. CHANGE LAYER,ROW,COL MAX. CHANGE LAYER,ROW,COL MAX. CHANGE LAYER,ROW,COL
 ------------------------------------------------------------------------------------------------------------------------------------
   0.8726E-02 (  1,  5,  5)  0.2910E-10 (  1,  4,  6)


                                          ================================================
                                                         TIME STEP NO.  087
                                          ================================================

 FROM TIME =   87.000     TO    88.000    


                    "THKSAT          " FLOW TERMS FOR TIME STEP 87, STRESS PERIOD  2 READ UNFORMATTED ON UNIT 10
                    --------------------------------------------------------------------------------------------

                    "QXX             " FLOW TERMS FOR TIME STEP 87, STRESS PERIOD  2 READ UNFORMATTED ON UNIT 10
                    --------------------------------------------------------------------------------------------

                    "QYY             " FLOW TERMS FOR TIME STEP 87, STRESS PERIOD  2 READ UNFORMATTED ON UNIT 10
                    --------------------------------------------------------------------------------------------

                    "QZZ             " FLOW TERMS FOR TIME STEP 87, STRESS PERIOD  2 READ UNFORMATTED ON UNIT 10
                    --------------------------------------------------------------------------------------------

                    "STO             " FLOW TERMS FOR TIME STEP 87, STRESS PERIOD  2 READ UNFORMATTED ON UNIT 10
                    --------------------------------------------------------------------------------------------

 MAXIMUM STEPSIZE DURING WHICH ANY PARTICLE CANNOT MOVE MORE THAN ONE CELL
 =  842.5    (WHEN MIN. R.F.=1)  AT K=   2, I=   5, J=   5

 MAXIMUM STEPSIZE WHICH MEETS STABILITY CRITERION OF THE ADVECTION TERM
 (FOR PURE FINITE-DIFFERENCE OPTION, MIXELM=0) 
 =  265.7    (WHEN MIN. R.F.=1)  AT K=   2, I=   5, J=   5

                    "CNH             " FLOW TERMS FOR TIME STEP 87, STRESS PERIOD  2 READ UNFORMATTED ON UNIT 10
                    --------------------------------------------------------------------------------------------

                    "WEL             " FLOW TERMS FOR TIME STEP 87, STRESS PERIOD  2 READ UNFORMATTED ON UNIT 10
                    --------------------------------------------------------------------------------------------

                    "GHB             " FLOW TERMS FOR TIME STEP 87, STRESS PERIOD  2 READ UNFORMATTED ON UNIT 10
                    --------------------------------------------------------------------------------------------


 TOTAL NUMBER OF POINT SOURCES/SINKS PRESENT IN THE FLOW MODEL =    41

 MAXIMUM STEPSIZE WHICH MEETS STABILITY CRITERION OF THE SINK & SOURCE TERM
 =  180.0    (WHEN MIN. R.F.=1)  AT K=   1, I=   5, J=   5

 MAXIMUM STEPSIZE WHICH MEETS STABILITY CRITERION OF THE DISPERSION TERM
 =  538.7    (WHEN MIN. R.F.=1)  AT K=   1, I=   5, J=   5


     1 CALLS TO GCG PACKAGE FOR TRANSPORT TIME STEP   1 IN FLOW TIME STEP  87 STRESS PERIOD   2
     2 TOTAL ITERATIONS
  MAXIMUM CONCENTRATION CHANGES FOR EACH ITERATION:
  MAX. CHANGE LAYER,ROW,COL MAX. CHANGE LAYER,ROW,COL MAX. CHANGE LAYER,ROW,COL MAX. CHANGE LAYER,ROW,COL MAX. CHANGE LAYER,ROW,COL
 ------------------------------------------------------------------------------------------------------------------------------------
   0.8594E-02 (  1,  5,  5)  0.2910E-10 (  1,  4,  6)


                                          ================================================
                                                         TIME STEP NO.  088
                                          ================================================

 FROM TIME =   88.000     TO    89.000    


                    "THKSAT          " FLOW TERMS FOR TIME STEP 88, STRESS PERIOD  2 READ UNFORMATTED ON UNIT 10
                    --------------------------------------------------------------------------------------------

                    "QXX             " FLOW TERMS FOR TIME STEP 88, STRESS PERIOD  2 READ UNFORMATTED ON UNIT 10
                    --------------------------------------------------------------------------------------------

                    "QYY             " FLOW TERMS FOR TIME STEP 88, STRESS PERIOD  2 READ UNFORMATTED ON UNIT 10
                    --------------------------------------------------------------------------------------------

                    "QZZ             " FLOW TERMS FOR TIME STEP 88, STRESS PERIOD  2 READ UNFORMATTED ON UNIT 10
                    --------------------------------------------------------------------------------------------

                    "STO             " FLOW TERMS FOR TIME STEP 88, STRESS PERIOD  2 READ UNFORMATTED ON UNIT 10
                    --------------------------------------------------------------------------------------------

 MAXIMUM STEPSIZE DURING WHICH ANY PARTICLE CANNOT MOVE MORE THAN ONE CELL
 =  842.4    (WHEN MIN. R.F.=1)  AT K=   2, I=   5, J=   5

 MAXIMUM STEPSIZE WHICH MEETS STABILITY CRITERION OF THE ADVECTION TERM
 (FOR PURE FINITE-DIFFERENCE OPTION, MIXELM=0) 
 =  265.6    (WHEN MIN. R.F.=1)  AT K=   2, I=   5, J=   5

                    "CNH             " FLOW TERMS FOR TIME STEP 88, STRESS PERIOD  2 READ UNFORMATTED ON UNIT 10
                    --------------------------------------------------------------------------------------------

                    "WEL             " FLOW TERMS FOR TIME STEP 88, STRESS PERIOD  2 READ UNFORMATTED ON UNIT 10
                    --------------------------------------------------------------------------------------------

                    "GHB             " FLOW TERMS FOR TIME STEP 88, STRESS PERIOD  2 READ UNFORMATTED ON UNIT 10
                    --------------------------------------------------------------------------------------------


 TOTAL NUMBER OF POINT SOURCES/SINKS PRESENT IN THE FLOW MODEL =    41

 MAXIMUM STEPSIZE WHICH MEETS STABILITY CRITERION OF THE SINK & SOURCE TERM
 =  180.0    (WHEN MIN. R.F.=1)  AT K=   1, I=   5, J=   5

 MAXIMUM STEPSIZE WHICH MEETS STABILITY CRITERION OF THE DISPERSION TERM
 =  538.8    (WHEN MIN. R.F.=1)  AT K=   1, I=   5, J=   5


     1 CALLS TO GCG PACKAGE FOR TRANSPORT TIME STEP   1 IN FLOW TIME STEP  88 STRESS PERIOD   2
     2 TOTAL ITERATIONS
  MAXIMUM CONCENTRATION CHANGES FOR EACH ITERATION:
  MAX. CHANGE LAYER,ROW,COL MAX. CHANGE LAYER,ROW,COL MAX. CHANGE LAYER,ROW,COL MAX. CHANGE LAYER,ROW,COL MAX. CHANGE LAYER,ROW,COL
 ------------------------------------------------------------------------------------------------------------------------------------
   0.8465E-02 (  1,  5,  5)  0.2910E-10 (  1,  4,  6)


                                          ================================================
                                                         TIME STEP NO.  089
                                          ================================================

 FROM TIME =   89.000     TO    90.000    


                    "THKSAT          " FLOW TERMS FOR TIME STEP 89, STRESS PERIOD  2 READ UNFORMATTED ON UNIT 10
                    --------------------------------------------------------------------------------------------

                    "QXX             " FLOW TERMS FOR TIME STEP 89, STRESS PERIOD  2 READ UNFORMATTED ON UNIT 10
                    --------------------------------------------------------------------------------------------

                    "QYY             " FLOW TERMS FOR TIME STEP 89, STRESS PERIOD  2 READ UNFORMATTED ON UNIT 10
                    --------------------------------------------------------------------------------------------

                    "QZZ             " FLOW TERMS FOR TIME STEP 89, STRESS PERIOD  2 READ UNFORMATTED ON UNIT 10
                    --------------------------------------------------------------------------------------------

                    "STO             " FLOW TERMS FOR TIME STEP 89, STRESS PERIOD  2 READ UNFORMATTED ON UNIT 10
                    --------------------------------------------------------------------------------------------

 MAXIMUM STEPSIZE DURING WHICH ANY PARTICLE CANNOT MOVE MORE THAN ONE CELL
 =  842.4    (WHEN MIN. R.F.=1)  AT K=   2, I=   5, J=   5

 MAXIMUM STEPSIZE WHICH MEETS STABILITY CRITERION OF THE ADVECTION TERM
 (FOR PURE FINITE-DIFFERENCE OPTION, MIXELM=0) 
 =  265.5    (WHEN MIN. R.F.=1)  AT K=   2, I=   5, J=   5

                    "CNH             " FLOW TERMS FOR TIME STEP 89, STRESS PERIOD  2 READ UNFORMATTED ON UNIT 10
                    --------------------------------------------------------------------------------------------

                    "WEL             " FLOW TERMS FOR TIME STEP 89, STRESS PERIOD  2 READ UNFORMATTED ON UNIT 10
                    --------------------------------------------------------------------------------------------

                    "GHB             " FLOW TERMS FOR TIME STEP 89, STRESS PERIOD  2 READ UNFORMATTED ON UNIT 10
                    --------------------------------------------------------------------------------------------


 TOTAL NUMBER OF POINT SOURCES/SINKS PRESENT IN THE FLOW MODEL =    41

 MAXIMUM STEPSIZE WHICH MEETS STABILITY CRITERION OF THE SINK & SOURCE TERM
 =  180.0    (WHEN MIN. R.F.=1)  AT K=   1, I=   5, J=   5

 MAXIMUM STEPSIZE WHICH MEETS STABILITY CRITERION OF THE DISPERSION TERM
 =  538.9    (WHEN MIN. R.F.=1)  AT K=   1, I=   5, J=   5


     1 CALLS TO GCG PACKAGE FOR TRANSPORT TIME STEP   1 IN FLOW TIME STEP  89 STRESS PERIOD   2
     2 TOTAL ITERATIONS
  MAXIMUM CONCENTRATION CHANGES FOR EACH ITERATION:
  MAX. CHANGE LAYER,ROW,COL MAX. CHANGE LAYER,ROW,COL MAX. CHANGE LAYER,ROW,COL MAX. CHANGE LAYER,ROW,COL MAX. CHANGE LAYER,ROW,COL
 ------------------------------------------------------------------------------------------------------------------------------------
   0.8339E-02 (  1,  5,  5)  0.2910E-10 (  1,  4,  6)


                                          ================================================
                                                         TIME STEP NO.  090
                                          ================================================

 FROM TIME =   90.000     TO    91.000    


                    "THKSAT          " FLOW TERMS FOR TIME STEP 90, STRESS PERIOD  2 READ UNFORMATTED ON UNIT 10
                    --------------------------------------------------------------------------------------------

                    "QXX             " FLOW TERMS FOR TIME STEP 90, STRESS PERIOD  2 READ UNFORMATTED ON UNIT 10
                    --------------------------------------------------------------------------------------------

                    "QYY             " FLOW TERMS FOR TIME STEP 90, STRESS PERIOD  2 READ UNFORMATTED ON UNIT 10
                    --------------------------------------------------------------------------------------------

                    "QZZ             " FLOW TERMS FOR TIME STEP 90, STRESS PERIOD  2 READ UNFORMATTED ON UNIT 10
                    --------------------------------------------------------------------------------------------

                    "STO             " FLOW TERMS FOR TIME STEP 90, STRESS PERIOD  2 READ UNFORMATTED ON UNIT 10
                    --------------------------------------------------------------------------------------------

 MAXIMUM STEPSIZE DURING WHICH ANY PARTICLE CANNOT MOVE MORE THAN ONE CELL
 =  842.3    (WHEN MIN. R.F.=1)  AT K=   2, I=   5, J=   5

 MAXIMUM STEPSIZE WHICH MEETS STABILITY CRITERION OF THE ADVECTION TERM
 (FOR PURE FINITE-DIFFERENCE OPTION, MIXELM=0) 
 =  265.4    (WHEN MIN. R.F.=1)  AT K=   2, I=   5, J=   5

                    "CNH             " FLOW TERMS FOR TIME STEP 90, STRESS PERIOD  2 READ UNFORMATTED ON UNIT 10
                    --------------------------------------------------------------------------------------------

                    "WEL             " FLOW TERMS FOR TIME STEP 90, STRESS PERIOD  2 READ UNFORMATTED ON UNIT 10
                    --------------------------------------------------------------------------------------------

                    "GHB             " FLOW TERMS FOR TIME STEP 90, STRESS PERIOD  2 READ UNFORMATTED ON UNIT 10
                    --------------------------------------------------------------------------------------------


 TOTAL NUMBER OF POINT SOURCES/SINKS PRESENT IN THE FLOW MODEL =    41

 MAXIMUM STEPSIZE WHICH MEETS STABILITY CRITERION OF THE SINK & SOURCE TERM
 =  180.0    (WHEN MIN. R.F.=1)  AT K=   1, I=   5, J=   5

 MAXIMUM STEPSIZE WHICH MEETS STABILITY CRITERION OF THE DISPERSION TERM
 =  539.0    (WHEN MIN. R.F.=1)  AT K=   1, I=   5, J=   5


     1 CALLS TO GCG PACKAGE FOR TRANSPORT TIME STEP   1 IN FLOW TIME STEP  90 STRESS PERIOD   2
     2 TOTAL ITERATIONS
  MAXIMUM CONCENTRATION CHANGES FOR EACH ITERATION:
  MAX. CHANGE LAYER,ROW,COL MAX. CHANGE LAYER,ROW,COL MAX. CHANGE LAYER,ROW,COL MAX. CHANGE LAYER,ROW,COL MAX. CHANGE LAYER,ROW,COL
 ------------------------------------------------------------------------------------------------------------------------------------
   0.8216E-02 (  1,  5,  5)  0.2910E-10 (  1,  4,  6)


                                          ================================================
                                                         TIME STEP NO.  091
                                          ================================================

 FROM TIME =   91.000     TO    92.000    


                    "THKSAT          " FLOW TERMS FOR TIME STEP 91, STRESS PERIOD  2 READ UNFORMATTED ON UNIT 10
                    --------------------------------------------------------------------------------------------

                    "QXX             " FLOW TERMS FOR TIME STEP 91, STRESS PERIOD  2 READ UNFORMATTED ON UNIT 10
                    --------------------------------------------------------------------------------------------

                    "QYY             " FLOW TERMS FOR TIME STEP 91, STRESS PERIOD  2 READ UNFORMATTED ON UNIT 10
                    --------------------------------------------------------------------------------------------

                    "QZZ             " FLOW TERMS FOR TIME STEP 91, STRESS PERIOD  2 READ UNFORMATTED ON UNIT 10
                    --------------------------------------------------------------------------------------------

                    "STO             " FLOW TERMS FOR TIME STEP 91, STRESS PERIOD  2 READ UNFORMATTED ON UNIT 10
                    --------------------------------------------------------------------------------------------

 MAXIMUM STEPSIZE DURING WHICH ANY PARTICLE CANNOT MOVE MORE THAN ONE CELL
 =  842.3    (WHEN MIN. R.F.=1)  AT K=   2, I=   5, J=   5

 MAXIMUM STEPSIZE WHICH MEETS STABILITY CRITERION OF THE ADVECTION TERM
 (FOR PURE FINITE-DIFFERENCE OPTION, MIXELM=0) 
 =  265.3    (WHEN MIN. R.F.=1)  AT K=   2, I=   5, J=   5

                    "CNH             " FLOW TERMS FOR TIME STEP 91, STRESS PERIOD  2 READ UNFORMATTED ON UNIT 10
                    --------------------------------------------------------------------------------------------

                    "WEL             " FLOW TERMS FOR TIME STEP 91, STRESS PERIOD  2 READ UNFORMATTED ON UNIT 10
                    --------------------------------------------------------------------------------------------

                    "GHB             " FLOW TERMS FOR TIME STEP 91, STRESS PERIOD  2 READ UNFORMATTED ON UNIT 10
                    --------------------------------------------------------------------------------------------


 TOTAL NUMBER OF POINT SOURCES/SINKS PRESENT IN THE FLOW MODEL =    41

 MAXIMUM STEPSIZE WHICH MEETS STABILITY CRITERION OF THE SINK & SOURCE TERM
 =  180.0    (WHEN MIN. R.F.=1)  AT K=   1, I=   5, J=   5

 MAXIMUM STEPSIZE WHICH MEETS STABILITY CRITERION OF THE DISPERSION TERM
 =  539.1    (WHEN MIN. R.F.=1)  AT K=   1, I=   5, J=   5


     1 CALLS TO GCG PACKAGE FOR TRANSPORT TIME STEP   1 IN FLOW TIME STEP  91 STRESS PERIOD   2
     2 TOTAL ITERATIONS
  MAXIMUM CONCENTRATION CHANGES FOR EACH ITERATION:
  MAX. CHANGE LAYER,ROW,COL MAX. CHANGE LAYER,ROW,COL MAX. CHANGE LAYER,ROW,COL MAX. CHANGE LAYER,ROW,COL MAX. CHANGE LAYER,ROW,COL
 ------------------------------------------------------------------------------------------------------------------------------------
   0.8095E-02 (  1,  5,  5)  0.2910E-10 (  1,  4,  6)


                                          ================================================
                                                         TIME STEP NO.  092
                                          ================================================

 FROM TIME =   92.000     TO    93.000    


                    "THKSAT          " FLOW TERMS FOR TIME STEP 92, STRESS PERIOD  2 READ UNFORMATTED ON UNIT 10
                    --------------------------------------------------------------------------------------------

                    "QXX             " FLOW TERMS FOR TIME STEP 92, STRESS PERIOD  2 READ UNFORMATTED ON UNIT 10
                    --------------------------------------------------------------------------------------------

                    "QYY             " FLOW TERMS FOR TIME STEP 92, STRESS PERIOD  2 READ UNFORMATTED ON UNIT 10
                    --------------------------------------------------------------------------------------------

                    "QZZ             " FLOW TERMS FOR TIME STEP 92, STRESS PERIOD  2 READ UNFORMATTED ON UNIT 10
                    --------------------------------------------------------------------------------------------

                    "STO             " FLOW TERMS FOR TIME STEP 92, STRESS PERIOD  2 READ UNFORMATTED ON UNIT 10
                    --------------------------------------------------------------------------------------------

 MAXIMUM STEPSIZE DURING WHICH ANY PARTICLE CANNOT MOVE MORE THAN ONE CELL
 =  842.2    (WHEN MIN. R.F.=1)  AT K=   2, I=   5, J=   5

 MAXIMUM STEPSIZE WHICH MEETS STABILITY CRITERION OF THE ADVECTION TERM
 (FOR PURE FINITE-DIFFERENCE OPTION, MIXELM=0) 
 =  265.2    (WHEN MIN. R.F.=1)  AT K=   2, I=   5, J=   5

                    "CNH             " FLOW TERMS FOR TIME STEP 92, STRESS PERIOD  2 READ UNFORMATTED ON UNIT 10
                    --------------------------------------------------------------------------------------------

                    "WEL             " FLOW TERMS FOR TIME STEP 92, STRESS PERIOD  2 READ UNFORMATTED ON UNIT 10
                    --------------------------------------------------------------------------------------------

                    "GHB             " FLOW TERMS FOR TIME STEP 92, STRESS PERIOD  2 READ UNFORMATTED ON UNIT 10
                    --------------------------------------------------------------------------------------------


 TOTAL NUMBER OF POINT SOURCES/SINKS PRESENT IN THE FLOW MODEL =    41

 MAXIMUM STEPSIZE WHICH MEETS STABILITY CRITERION OF THE SINK & SOURCE TERM
 =  180.0    (WHEN MIN. R.F.=1)  AT K=   1, I=   5, J=   5

 MAXIMUM STEPSIZE WHICH MEETS STABILITY CRITERION OF THE DISPERSION TERM
 =  539.2    (WHEN MIN. R.F.=1)  AT K=   1, I=   5, J=   5


     1 CALLS TO GCG PACKAGE FOR TRANSPORT TIME STEP   1 IN FLOW TIME STEP  92 STRESS PERIOD   2
     2 TOTAL ITERATIONS
  MAXIMUM CONCENTRATION CHANGES FOR EACH ITERATION:
  MAX. CHANGE LAYER,ROW,COL MAX. CHANGE LAYER,ROW,COL MAX. CHANGE LAYER,ROW,COL MAX. CHANGE LAYER,ROW,COL MAX. CHANGE LAYER,ROW,COL
 ------------------------------------------------------------------------------------------------------------------------------------
   0.7978E-02 (  1,  5,  5)  0.2910E-10 (  1,  4,  6)


                                          ================================================
                                                         TIME STEP NO.  093
                                          ================================================

 FROM TIME =   93.000     TO    94.000    


                    "THKSAT          " FLOW TERMS FOR TIME STEP 93, STRESS PERIOD  2 READ UNFORMATTED ON UNIT 10
                    --------------------------------------------------------------------------------------------

                    "QXX             " FLOW TERMS FOR TIME STEP 93, STRESS PERIOD  2 READ UNFORMATTED ON UNIT 10
                    --------------------------------------------------------------------------------------------

                    "QYY             " FLOW TERMS FOR TIME STEP 93, STRESS PERIOD  2 READ UNFORMATTED ON UNIT 10
                    --------------------------------------------------------------------------------------------

                    "QZZ             " FLOW TERMS FOR TIME STEP 93, STRESS PERIOD  2 READ UNFORMATTED ON UNIT 10
                    --------------------------------------------------------------------------------------------

                    "STO             " FLOW TERMS FOR TIME STEP 93, STRESS PERIOD  2 READ UNFORMATTED ON UNIT 10
                    --------------------------------------------------------------------------------------------

 MAXIMUM STEPSIZE DURING WHICH ANY PARTICLE CANNOT MOVE MORE THAN ONE CELL
 =  842.2    (WHEN MIN. R.F.=1)  AT K=   2, I=   5, J=   5

 MAXIMUM STEPSIZE WHICH MEETS STABILITY CRITERION OF THE ADVECTION TERM
 (FOR PURE FINITE-DIFFERENCE OPTION, MIXELM=0) 
 =  265.1    (WHEN MIN. R.F.=1)  AT K=   2, I=   5, J=   5

                    "CNH             " FLOW TERMS FOR TIME STEP 93, STRESS PERIOD  2 READ UNFORMATTED ON UNIT 10
                    --------------------------------------------------------------------------------------------

                    "WEL             " FLOW TERMS FOR TIME STEP 93, STRESS PERIOD  2 READ UNFORMATTED ON UNIT 10
                    --------------------------------------------------------------------------------------------

                    "GHB             " FLOW TERMS FOR TIME STEP 93, STRESS PERIOD  2 READ UNFORMATTED ON UNIT 10
                    --------------------------------------------------------------------------------------------


 TOTAL NUMBER OF POINT SOURCES/SINKS PRESENT IN THE FLOW MODEL =    41

 MAXIMUM STEPSIZE WHICH MEETS STABILITY CRITERION OF THE SINK & SOURCE TERM
 =  180.0    (WHEN MIN. R.F.=1)  AT K=   1, I=   5, J=   5

 MAXIMUM STEPSIZE WHICH MEETS STABILITY CRITERION OF THE DISPERSION TERM
 =  539.3    (WHEN MIN. R.F.=1)  AT K=   1, I=   5, J=   5


     1 CALLS TO GCG PACKAGE FOR TRANSPORT TIME STEP   1 IN FLOW TIME STEP  93 STRESS PERIOD   2
     2 TOTAL ITERATIONS
  MAXIMUM CONCENTRATION CHANGES FOR EACH ITERATION:
  MAX. CHANGE LAYER,ROW,COL MAX. CHANGE LAYER,ROW,COL MAX. CHANGE LAYER,ROW,COL MAX. CHANGE LAYER,ROW,COL MAX. CHANGE LAYER,ROW,COL
 ------------------------------------------------------------------------------------------------------------------------------------
   0.7863E-02 (  1,  5,  5)  0.2910E-10 (  1,  4,  6)


                                          ================================================
                                                         TIME STEP NO.  094
                                          ================================================

 FROM TIME =   94.000     TO    95.000    


                    "THKSAT          " FLOW TERMS FOR TIME STEP 94, STRESS PERIOD  2 READ UNFORMATTED ON UNIT 10
                    --------------------------------------------------------------------------------------------

                    "QXX             " FLOW TERMS FOR TIME STEP 94, STRESS PERIOD  2 READ UNFORMATTED ON UNIT 10
                    --------------------------------------------------------------------------------------------

                    "QYY             " FLOW TERMS FOR TIME STEP 94, STRESS PERIOD  2 READ UNFORMATTED ON UNIT 10
                    --------------------------------------------------------------------------------------------

                    "QZZ             " FLOW TERMS FOR TIME STEP 94, STRESS PERIOD  2 READ UNFORMATTED ON UNIT 10
                    --------------------------------------------------------------------------------------------

                    "STO             " FLOW TERMS FOR TIME STEP 94, STRESS PERIOD  2 READ UNFORMATTED ON UNIT 10
                    --------------------------------------------------------------------------------------------

 MAXIMUM STEPSIZE DURING WHICH ANY PARTICLE CANNOT MOVE MORE THAN ONE CELL
 =  842.1    (WHEN MIN. R.F.=1)  AT K=   2, I=   5, J=   5

 MAXIMUM STEPSIZE WHICH MEETS STABILITY CRITERION OF THE ADVECTION TERM
 (FOR PURE FINITE-DIFFERENCE OPTION, MIXELM=0) 
 =  264.9    (WHEN MIN. R.F.=1)  AT K=   2, I=   5, J=   5

                    "CNH             " FLOW TERMS FOR TIME STEP 94, STRESS PERIOD  2 READ UNFORMATTED ON UNIT 10
                    --------------------------------------------------------------------------------------------

                    "WEL             " FLOW TERMS FOR TIME STEP 94, STRESS PERIOD  2 READ UNFORMATTED ON UNIT 10
                    --------------------------------------------------------------------------------------------

                    "GHB             " FLOW TERMS FOR TIME STEP 94, STRESS PERIOD  2 READ UNFORMATTED ON UNIT 10
                    --------------------------------------------------------------------------------------------


 TOTAL NUMBER OF POINT SOURCES/SINKS PRESENT IN THE FLOW MODEL =    41

 MAXIMUM STEPSIZE WHICH MEETS STABILITY CRITERION OF THE SINK & SOURCE TERM
 =  180.0    (WHEN MIN. R.F.=1)  AT K=   1, I=   5, J=   5

 MAXIMUM STEPSIZE WHICH MEETS STABILITY CRITERION OF THE DISPERSION TERM
 =  539.5    (WHEN MIN. R.F.=1)  AT K=   1, I=   5, J=   5


     1 CALLS TO GCG PACKAGE FOR TRANSPORT TIME STEP   1 IN FLOW TIME STEP  94 STRESS PERIOD   2
     2 TOTAL ITERATIONS
  MAXIMUM CONCENTRATION CHANGES FOR EACH ITERATION:
  MAX. CHANGE LAYER,ROW,COL MAX. CHANGE LAYER,ROW,COL MAX. CHANGE LAYER,ROW,COL MAX. CHANGE LAYER,ROW,COL MAX. CHANGE LAYER,ROW,COL
 ------------------------------------------------------------------------------------------------------------------------------------
   0.7751E-02 (  1,  5,  5)  0.2910E-10 (  1,  4,  6)


                                          ================================================
                                                         TIME STEP NO.  095
                                          ================================================

 FROM TIME =   95.000     TO    96.000    


                    "THKSAT          " FLOW TERMS FOR TIME STEP 95, STRESS PERIOD  2 READ UNFORMATTED ON UNIT 10
                    --------------------------------------------------------------------------------------------

                    "QXX             " FLOW TERMS FOR TIME STEP 95, STRESS PERIOD  2 READ UNFORMATTED ON UNIT 10
                    --------------------------------------------------------------------------------------------

                    "QYY             " FLOW TERMS FOR TIME STEP 95, STRESS PERIOD  2 READ UNFORMATTED ON UNIT 10
                    --------------------------------------------------------------------------------------------

                    "QZZ             " FLOW TERMS FOR TIME STEP 95, STRESS PERIOD  2 READ UNFORMATTED ON UNIT 10
                    --------------------------------------------------------------------------------------------

                    "STO             " FLOW TERMS FOR TIME STEP 95, STRESS PERIOD  2 READ UNFORMATTED ON UNIT 10
                    --------------------------------------------------------------------------------------------

 MAXIMUM STEPSIZE DURING WHICH ANY PARTICLE CANNOT MOVE MORE THAN ONE CELL
 =  842.1    (WHEN MIN. R.F.=1)  AT K=   2, I=   5, J=   5

 MAXIMUM STEPSIZE WHICH MEETS STABILITY CRITERION OF THE ADVECTION TERM
 (FOR PURE FINITE-DIFFERENCE OPTION, MIXELM=0) 
 =  264.8    (WHEN MIN. R.F.=1)  AT K=   2, I=   5, J=   5

                    "CNH             " FLOW TERMS FOR TIME STEP 95, STRESS PERIOD  2 READ UNFORMATTED ON UNIT 10
                    --------------------------------------------------------------------------------------------

                    "WEL             " FLOW TERMS FOR TIME STEP 95, STRESS PERIOD  2 READ UNFORMATTED ON UNIT 10
                    --------------------------------------------------------------------------------------------

                    "GHB             " FLOW TERMS FOR TIME STEP 95, STRESS PERIOD  2 READ UNFORMATTED ON UNIT 10
                    --------------------------------------------------------------------------------------------


 TOTAL NUMBER OF POINT SOURCES/SINKS PRESENT IN THE FLOW MODEL =    41

 MAXIMUM STEPSIZE WHICH MEETS STABILITY CRITERION OF THE SINK & SOURCE TERM
 =  180.0    (WHEN MIN. R.F.=1)  AT K=   1, I=   5, J=   5

 MAXIMUM STEPSIZE WHICH MEETS STABILITY CRITERION OF THE DISPERSION TERM
 =  539.6    (WHEN MIN. R.F.=1)  AT K=   1, I=   5, J=   5


     1 CALLS TO GCG PACKAGE FOR TRANSPORT TIME STEP   1 IN FLOW TIME STEP  95 STRESS PERIOD   2
     2 TOTAL ITERATIONS
  MAXIMUM CONCENTRATION CHANGES FOR EACH ITERATION:
  MAX. CHANGE LAYER,ROW,COL MAX. CHANGE LAYER,ROW,COL MAX. CHANGE LAYER,ROW,COL MAX. CHANGE LAYER,ROW,COL MAX. CHANGE LAYER,ROW,COL
 ------------------------------------------------------------------------------------------------------------------------------------
   0.7641E-02 (  1,  5,  5)  0.2910E-10 (  1,  4,  6)


                                          ================================================
                                                         TIME STEP NO.  096
                                          ================================================

 FROM TIME =   96.000     TO    97.000    


                    "THKSAT          " FLOW TERMS FOR TIME STEP 96, STRESS PERIOD  2 READ UNFORMATTED ON UNIT 10
                    --------------------------------------------------------------------------------------------

                    "QXX             " FLOW TERMS FOR TIME STEP 96, STRESS PERIOD  2 READ UNFORMATTED ON UNIT 10
                    --------------------------------------------------------------------------------------------

                    "QYY             " FLOW TERMS FOR TIME STEP 96, STRESS PERIOD  2 READ UNFORMATTED ON UNIT 10
                    --------------------------------------------------------------------------------------------

                    "QZZ             " FLOW TERMS FOR TIME STEP 96, STRESS PERIOD  2 READ UNFORMATTED ON UNIT 10
                    --------------------------------------------------------------------------------------------

                    "STO             " FLOW TERMS FOR TIME STEP 96, STRESS PERIOD  2 READ UNFORMATTED ON UNIT 10
                    --------------------------------------------------------------------------------------------

 MAXIMUM STEPSIZE DURING WHICH ANY PARTICLE CANNOT MOVE MORE THAN ONE CELL
 =  842.0    (WHEN MIN. R.F.=1)  AT K=   2, I=   5, J=   5

 MAXIMUM STEPSIZE WHICH MEETS STABILITY CRITERION OF THE ADVECTION TERM
 (FOR PURE FINITE-DIFFERENCE OPTION, MIXELM=0) 
 =  264.7    (WHEN MIN. R.F.=1)  AT K=   2, I=   5, J=   5

                    "CNH             " FLOW TERMS FOR TIME STEP 96, STRESS PERIOD  2 READ UNFORMATTED ON UNIT 10
                    --------------------------------------------------------------------------------------------

                    "WEL             " FLOW TERMS FOR TIME STEP 96, STRESS PERIOD  2 READ UNFORMATTED ON UNIT 10
                    --------------------------------------------------------------------------------------------

                    "GHB             " FLOW TERMS FOR TIME STEP 96, STRESS PERIOD  2 READ UNFORMATTED ON UNIT 10
                    --------------------------------------------------------------------------------------------


 TOTAL NUMBER OF POINT SOURCES/SINKS PRESENT IN THE FLOW MODEL =    41

 MAXIMUM STEPSIZE WHICH MEETS STABILITY CRITERION OF THE SINK & SOURCE TERM
 =  180.0    (WHEN MIN. R.F.=1)  AT K=   1, I=   5, J=   5

 MAXIMUM STEPSIZE WHICH MEETS STABILITY CRITERION OF THE DISPERSION TERM
 =  539.7    (WHEN MIN. R.F.=1)  AT K=   1, I=   5, J=   5


     1 CALLS TO GCG PACKAGE FOR TRANSPORT TIME STEP   1 IN FLOW TIME STEP  96 STRESS PERIOD   2
     2 TOTAL ITERATIONS
  MAXIMUM CONCENTRATION CHANGES FOR EACH ITERATION:
  MAX. CHANGE LAYER,ROW,COL MAX. CHANGE LAYER,ROW,COL MAX. CHANGE LAYER,ROW,COL MAX. CHANGE LAYER,ROW,COL MAX. CHANGE LAYER,ROW,COL
 ------------------------------------------------------------------------------------------------------------------------------------
   0.7533E-02 (  1,  5,  5)  0.2910E-10 (  1,  4,  6)


                                          ================================================
                                                         TIME STEP NO.  097
                                          ================================================

 FROM TIME =   97.000     TO    98.000    


                    "THKSAT          " FLOW TERMS FOR TIME STEP 97, STRESS PERIOD  2 READ UNFORMATTED ON UNIT 10
                    --------------------------------------------------------------------------------------------

                    "QXX             " FLOW TERMS FOR TIME STEP 97, STRESS PERIOD  2 READ UNFORMATTED ON UNIT 10
                    --------------------------------------------------------------------------------------------

                    "QYY             " FLOW TERMS FOR TIME STEP 97, STRESS PERIOD  2 READ UNFORMATTED ON UNIT 10
                    --------------------------------------------------------------------------------------------

                    "QZZ             " FLOW TERMS FOR TIME STEP 97, STRESS PERIOD  2 READ UNFORMATTED ON UNIT 10
                    --------------------------------------------------------------------------------------------

                    "STO             " FLOW TERMS FOR TIME STEP 97, STRESS PERIOD  2 READ UNFORMATTED ON UNIT 10
                    --------------------------------------------------------------------------------------------

 MAXIMUM STEPSIZE DURING WHICH ANY PARTICLE CANNOT MOVE MORE THAN ONE CELL
 =  842.0    (WHEN MIN. R.F.=1)  AT K=   2, I=   5, J=   5

 MAXIMUM STEPSIZE WHICH MEETS STABILITY CRITERION OF THE ADVECTION TERM
 (FOR PURE FINITE-DIFFERENCE OPTION, MIXELM=0) 
 =  264.6    (WHEN MIN. R.F.=1)  AT K=   2, I=   5, J=   5

                    "CNH             " FLOW TERMS FOR TIME STEP 97, STRESS PERIOD  2 READ UNFORMATTED ON UNIT 10
                    --------------------------------------------------------------------------------------------

                    "WEL             " FLOW TERMS FOR TIME STEP 97, STRESS PERIOD  2 READ UNFORMATTED ON UNIT 10
                    --------------------------------------------------------------------------------------------

                    "GHB             " FLOW TERMS FOR TIME STEP 97, STRESS PERIOD  2 READ UNFORMATTED ON UNIT 10
                    --------------------------------------------------------------------------------------------


 TOTAL NUMBER OF POINT SOURCES/SINKS PRESENT IN THE FLOW MODEL =    41

 MAXIMUM STEPSIZE WHICH MEETS STABILITY CRITERION OF THE SINK & SOURCE TERM
 =  180.0    (WHEN MIN. R.F.=1)  AT K=   1, I=   5, J=   5

 MAXIMUM STEPSIZE WHICH MEETS STABILITY CRITERION OF THE DISPERSION TERM
 =  539.8    (WHEN MIN. R.F.=1)  AT K=   1, I=   5, J=   5


     1 CALLS TO GCG PACKAGE FOR TRANSPORT TIME STEP   1 IN FLOW TIME STEP  97 STRESS PERIOD   2
     2 TOTAL ITERATIONS
  MAXIMUM CONCENTRATION CHANGES FOR EACH ITERATION:
  MAX. CHANGE LAYER,ROW,COL MAX. CHANGE LAYER,ROW,COL MAX. CHANGE LAYER,ROW,COL MAX. CHANGE LAYER,ROW,COL MAX. CHANGE LAYER,ROW,COL
 ------------------------------------------------------------------------------------------------------------------------------------
   0.7428E-02 (  1,  5,  5)  0.2910E-10 (  1,  4,  6)


                                          ================================================
                                                         TIME STEP NO.  098
                                          ================================================

 FROM TIME =   98.000     TO    99.000    


                    "THKSAT          " FLOW TERMS FOR TIME STEP 98, STRESS PERIOD  2 READ UNFORMATTED ON UNIT 10
                    --------------------------------------------------------------------------------------------

                    "QXX             " FLOW TERMS FOR TIME STEP 98, STRESS PERIOD  2 READ UNFORMATTED ON UNIT 10
                    --------------------------------------------------------------------------------------------

                    "QYY             " FLOW TERMS FOR TIME STEP 98, STRESS PERIOD  2 READ UNFORMATTED ON UNIT 10
                    --------------------------------------------------------------------------------------------

                    "QZZ             " FLOW TERMS FOR TIME STEP 98, STRESS PERIOD  2 READ UNFORMATTED ON UNIT 10
                    --------------------------------------------------------------------------------------------

                    "STO             " FLOW TERMS FOR TIME STEP 98, STRESS PERIOD  2 READ UNFORMATTED ON UNIT 10
                    --------------------------------------------------------------------------------------------

 MAXIMUM STEPSIZE DURING WHICH ANY PARTICLE CANNOT MOVE MORE THAN ONE CELL
 =  841.9    (WHEN MIN. R.F.=1)  AT K=   2, I=   5, J=   5

 MAXIMUM STEPSIZE WHICH MEETS STABILITY CRITERION OF THE ADVECTION TERM
 (FOR PURE FINITE-DIFFERENCE OPTION, MIXELM=0) 
 =  264.5    (WHEN MIN. R.F.=1)  AT K=   2, I=   5, J=   5

                    "CNH             " FLOW TERMS FOR TIME STEP 98, STRESS PERIOD  2 READ UNFORMATTED ON UNIT 10
                    --------------------------------------------------------------------------------------------

                    "WEL             " FLOW TERMS FOR TIME STEP 98, STRESS PERIOD  2 READ UNFORMATTED ON UNIT 10
                    --------------------------------------------------------------------------------------------

                    "GHB             " FLOW TERMS FOR TIME STEP 98, STRESS PERIOD  2 READ UNFORMATTED ON UNIT 10
                    --------------------------------------------------------------------------------------------


 TOTAL NUMBER OF POINT SOURCES/SINKS PRESENT IN THE FLOW MODEL =    41

 MAXIMUM STEPSIZE WHICH MEETS STABILITY CRITERION OF THE SINK & SOURCE TERM
 =  180.0    (WHEN MIN. R.F.=1)  AT K=   1, I=   5, J=   5

 MAXIMUM STEPSIZE WHICH MEETS STABILITY CRITERION OF THE DISPERSION TERM
 =  539.9    (WHEN MIN. R.F.=1)  AT K=   1, I=   5, J=   5


     1 CALLS TO GCG PACKAGE FOR TRANSPORT TIME STEP   1 IN FLOW TIME STEP  98 STRESS PERIOD   2
     2 TOTAL ITERATIONS
  MAXIMUM CONCENTRATION CHANGES FOR EACH ITERATION:
  MAX. CHANGE LAYER,ROW,COL MAX. CHANGE LAYER,ROW,COL MAX. CHANGE LAYER,ROW,COL MAX. CHANGE LAYER,ROW,COL MAX. CHANGE LAYER,ROW,COL
 ------------------------------------------------------------------------------------------------------------------------------------
   0.7325E-02 (  1,  5,  5)  0.2910E-10 (  1,  4,  6)


                                          ================================================
                                                         TIME STEP NO.  099
                                          ================================================

 FROM TIME =   99.000     TO    100.00    


                    "THKSAT          " FLOW TERMS FOR TIME STEP 99, STRESS PERIOD  2 READ UNFORMATTED ON UNIT 10
                    --------------------------------------------------------------------------------------------

                    "QXX             " FLOW TERMS FOR TIME STEP 99, STRESS PERIOD  2 READ UNFORMATTED ON UNIT 10
                    --------------------------------------------------------------------------------------------

                    "QYY             " FLOW TERMS FOR TIME STEP 99, STRESS PERIOD  2 READ UNFORMATTED ON UNIT 10
                    --------------------------------------------------------------------------------------------

                    "QZZ             " FLOW TERMS FOR TIME STEP 99, STRESS PERIOD  2 READ UNFORMATTED ON UNIT 10
                    --------------------------------------------------------------------------------------------

                    "STO             " FLOW TERMS FOR TIME STEP 99, STRESS PERIOD  2 READ UNFORMATTED ON UNIT 10
                    --------------------------------------------------------------------------------------------

 MAXIMUM STEPSIZE DURING WHICH ANY PARTICLE CANNOT MOVE MORE THAN ONE CELL
 =  841.9    (WHEN MIN. R.F.=1)  AT K=   2, I=   5, J=   5

 MAXIMUM STEPSIZE WHICH MEETS STABILITY CRITERION OF THE ADVECTION TERM
 (FOR PURE FINITE-DIFFERENCE OPTION, MIXELM=0) 
 =  264.4    (WHEN MIN. R.F.=1)  AT K=   2, I=   5, J=   5

                    "CNH             " FLOW TERMS FOR TIME STEP 99, STRESS PERIOD  2 READ UNFORMATTED ON UNIT 10
                    --------------------------------------------------------------------------------------------

                    "WEL             " FLOW TERMS FOR TIME STEP 99, STRESS PERIOD  2 READ UNFORMATTED ON UNIT 10
                    --------------------------------------------------------------------------------------------

                    "GHB             " FLOW TERMS FOR TIME STEP 99, STRESS PERIOD  2 READ UNFORMATTED ON UNIT 10
                    --------------------------------------------------------------------------------------------


 TOTAL NUMBER OF POINT SOURCES/SINKS PRESENT IN THE FLOW MODEL =    41

 MAXIMUM STEPSIZE WHICH MEETS STABILITY CRITERION OF THE SINK & SOURCE TERM
 =  180.0    (WHEN MIN. R.F.=1)  AT K=   1, I=   5, J=   5

 MAXIMUM STEPSIZE WHICH MEETS STABILITY CRITERION OF THE DISPERSION TERM
 =  540.0    (WHEN MIN. R.F.=1)  AT K=   1, I=   5, J=   5


     1 CALLS TO GCG PACKAGE FOR TRANSPORT TIME STEP   1 IN FLOW TIME STEP  99 STRESS PERIOD   2
     2 TOTAL ITERATIONS
  MAXIMUM CONCENTRATION CHANGES FOR EACH ITERATION:
  MAX. CHANGE LAYER,ROW,COL MAX. CHANGE LAYER,ROW,COL MAX. CHANGE LAYER,ROW,COL MAX. CHANGE LAYER,ROW,COL MAX. CHANGE LAYER,ROW,COL
 ------------------------------------------------------------------------------------------------------------------------------------
   0.7224E-02 (  1,  5,  5)  0.2910E-10 (  1,  4,  6)


                                          ================================================
                                                         TIME STEP NO.  100
                                          ================================================

 FROM TIME =   100.00     TO    101.00    


                    "THKSAT          " FLOW TERMS FOR TIME STEP100, STRESS PERIOD  2 READ UNFORMATTED ON UNIT 10
                    --------------------------------------------------------------------------------------------

                    "QXX             " FLOW TERMS FOR TIME STEP100, STRESS PERIOD  2 READ UNFORMATTED ON UNIT 10
                    --------------------------------------------------------------------------------------------

                    "QYY             " FLOW TERMS FOR TIME STEP100, STRESS PERIOD  2 READ UNFORMATTED ON UNIT 10
                    --------------------------------------------------------------------------------------------

                    "QZZ             " FLOW TERMS FOR TIME STEP100, STRESS PERIOD  2 READ UNFORMATTED ON UNIT 10
                    --------------------------------------------------------------------------------------------

                    "STO             " FLOW TERMS FOR TIME STEP100, STRESS PERIOD  2 READ UNFORMATTED ON UNIT 10
                    --------------------------------------------------------------------------------------------

 MAXIMUM STEPSIZE DURING WHICH ANY PARTICLE CANNOT MOVE MORE THAN ONE CELL
 =  841.9    (WHEN MIN. R.F.=1)  AT K=   2, I=   5, J=   5

 MAXIMUM STEPSIZE WHICH MEETS STABILITY CRITERION OF THE ADVECTION TERM
 (FOR PURE FINITE-DIFFERENCE OPTION, MIXELM=0) 
 =  264.3    (WHEN MIN. R.F.=1)  AT K=   2, I=   5, J=   5

                    "CNH             " FLOW TERMS FOR TIME STEP100, STRESS PERIOD  2 READ UNFORMATTED ON UNIT 10
                    --------------------------------------------------------------------------------------------

                    "WEL             " FLOW TERMS FOR TIME STEP100, STRESS PERIOD  2 READ UNFORMATTED ON UNIT 10
                    --------------------------------------------------------------------------------------------

                    "GHB             " FLOW TERMS FOR TIME STEP100, STRESS PERIOD  2 READ UNFORMATTED ON UNIT 10
                    --------------------------------------------------------------------------------------------


 TOTAL NUMBER OF POINT SOURCES/SINKS PRESENT IN THE FLOW MODEL =    41

 MAXIMUM STEPSIZE WHICH MEETS STABILITY CRITERION OF THE SINK & SOURCE TERM
 =  180.0    (WHEN MIN. R.F.=1)  AT K=   1, I=   5, J=   5

 MAXIMUM STEPSIZE WHICH MEETS STABILITY CRITERION OF THE DISPERSION TERM
 =  540.1    (WHEN MIN. R.F.=1)  AT K=   1, I=   5, J=   5


     1 CALLS TO GCG PACKAGE FOR TRANSPORT TIME STEP   1 IN FLOW TIME STEP 100 STRESS PERIOD   2
     2 TOTAL ITERATIONS
  MAXIMUM CONCENTRATION CHANGES FOR EACH ITERATION:
  MAX. CHANGE LAYER,ROW,COL MAX. CHANGE LAYER,ROW,COL MAX. CHANGE LAYER,ROW,COL MAX. CHANGE LAYER,ROW,COL MAX. CHANGE LAYER,ROW,COL
 ------------------------------------------------------------------------------------------------------------------------------------
   0.7125E-02 (  1,  5,  5)  0.2910E-10 (  1,  4,  6)



 >>>>>>>>>>>>>>>>>>>>>>>>>>>>>>>>>>>>>>>>>>>>>>>>>>>>>>>FOR COMPONENT NO. 01<<<<<<<<<<<<<<<<<<<<<<<<<<<<<<<<<<<<<<<<<<<<<<<<<<<<<<<


                                            -------------------------------------------
                                                      TRANSPORT STEP NO.    1
                                            -------------------------------------------

 TOTAL ELAPSED TIME SINCE BEGINNING OF SIMULATION =   101.0000    D   
 .....................................................................

 TOTAL PARTICLES USED IN THE CURRENT STEP =       896
 PARTICLES ADDED AT BEGINNING OF THE STEP =         0
 PARTICLES REMOVED AT END OF LAST STEP    =         0

                     CUMMULATIVE MASS BUDGETS AT END OF TRANSPORT STEP    1, TIME STEP  100, STRESS PERIOD    2
                     ------------------------------------------------------------------------------------------

                                                             IN                           OUT
                                                      ----------------             ----------------
                               CONSTANT CONCENTRATION:    0.000000                    0.000000    
                                        CONSTANT HEAD:    0.000000                    0.000000    
                                                WELLS:   0.5000000E+08                0.000000    
                              HEAD-DEPENDENT BOUNDARY:    0.000000                  -0.6506968E-07
                                MASS STORAGE (SOLUTE):    9.748124                  -0.3868778E+08
                            ---------------------------------------------------------------------------
                                              [TOTAL]:   0.5001149E+08 KG           -0.3868912E+08 KG  

                                                          NET (IN - OUT):   0.1132237E+08
                                                   DISCREPANCY (PERCENT):    25.52941    


                                   ++++++++++++++++++++++++++++++++++++++++++++++++++++++++++++++
                                                       STRESS PERIOD NO.  003
                                   ++++++++++++++++++++++++++++++++++++++++++++++++++++++++++++++


 LENGTH OF CURRENT STRESS PERIOD =   100.0000    
 NUMBER OF TIME STEPS FOR CURRENT STRESS PERIOD =  100
 TIME STEP MULTIPLIER USED IN FLOW SOLUTION =   1.000000    

 ***Type of Transport Simulation is TRANSIENT

 USER-SPECIFIED TRANSPORT STEPSIZE =   0.000000    D   
 MAXIMUM NUMBER OF TRANSPORT STEPS ALLOWED  IN ONE FLOW TIME STEP =     50000
 MULTIPLIER FOR SUCCESSIVE TRANSPORT STEPS  [USED IN IMPLICIT SCHEMES] =     1.000
 MAXIMUM TRANSPORT STEP SIZE  [USED IN IMPLICIT SCHEMES] =   0.000000    D   

       NO    LAYER   ROW   COLUMN   CONCENTRATION       TYPE            COMPONENT
       1       1       5       5       1000.000         WELL                1


                                          ================================================
                                                         TIME STEP NO.  001
                                          ================================================

 FROM TIME =   101.00     TO    102.00    


                    "THKSAT          " FLOW TERMS FOR TIME STEP  1, STRESS PERIOD  3 READ UNFORMATTED ON UNIT 10
                    --------------------------------------------------------------------------------------------

                    "QXX             " FLOW TERMS FOR TIME STEP  1, STRESS PERIOD  3 READ UNFORMATTED ON UNIT 10
                    --------------------------------------------------------------------------------------------

                    "QYY             " FLOW TERMS FOR TIME STEP  1, STRESS PERIOD  3 READ UNFORMATTED ON UNIT 10
                    --------------------------------------------------------------------------------------------

                    "QZZ             " FLOW TERMS FOR TIME STEP  1, STRESS PERIOD  3 READ UNFORMATTED ON UNIT 10
                    --------------------------------------------------------------------------------------------

                    "STO             " FLOW TERMS FOR TIME STEP  1, STRESS PERIOD  3 READ UNFORMATTED ON UNIT 10
                    --------------------------------------------------------------------------------------------

 MAXIMUM STEPSIZE DURING WHICH ANY PARTICLE CANNOT MOVE MORE THAN ONE CELL
 =  430.9    (WHEN MIN. R.F.=1)  AT K=   2, I=   5, J=   5

 MAXIMUM STEPSIZE WHICH MEETS STABILITY CRITERION OF THE ADVECTION TERM
 (FOR PURE FINITE-DIFFERENCE OPTION, MIXELM=0) 
 =  143.7    (WHEN MIN. R.F.=1)  AT K=   2, I=   5, J=   5

                    "CNH             " FLOW TERMS FOR TIME STEP  1, STRESS PERIOD  3 READ UNFORMATTED ON UNIT 10
                    --------------------------------------------------------------------------------------------

                    "WEL             " FLOW TERMS FOR TIME STEP  1, STRESS PERIOD  3 READ UNFORMATTED ON UNIT 10
                    --------------------------------------------------------------------------------------------

                    "GHB             " FLOW TERMS FOR TIME STEP  1, STRESS PERIOD  3 READ UNFORMATTED ON UNIT 10
                    --------------------------------------------------------------------------------------------


 TOTAL NUMBER OF POINT SOURCES/SINKS PRESENT IN THE FLOW MODEL =    41

 MAXIMUM STEPSIZE WHICH MEETS STABILITY CRITERION OF THE SINK & SOURCE TERM
 =  90.00    (WHEN MIN. R.F.=1)  AT K=   1, I=   5, J=   5

 MAXIMUM STEPSIZE WHICH MEETS STABILITY CRITERION OF THE DISPERSION TERM
 =  276.9    (WHEN MIN. R.F.=1)  AT K=   1, I=   5, J=   5


     1 CALLS TO GCG PACKAGE FOR TRANSPORT TIME STEP   1 IN FLOW TIME STEP   1 STRESS PERIOD   3
     2 TOTAL ITERATIONS
  MAXIMUM CONCENTRATION CHANGES FOR EACH ITERATION:
  MAX. CHANGE LAYER,ROW,COL MAX. CHANGE LAYER,ROW,COL MAX. CHANGE LAYER,ROW,COL MAX. CHANGE LAYER,ROW,COL MAX. CHANGE LAYER,ROW,COL
 ------------------------------------------------------------------------------------------------------------------------------------
   0.1404E-01 (  1,  5,  5)  0.4657E-09 (  1,  5,  6)


                                          ================================================
                                                         TIME STEP NO.  002
                                          ================================================

 FROM TIME =   102.00     TO    103.00    


                    "THKSAT          " FLOW TERMS FOR TIME STEP  2, STRESS PERIOD  3 READ UNFORMATTED ON UNIT 10
                    --------------------------------------------------------------------------------------------

                    "QXX             " FLOW TERMS FOR TIME STEP  2, STRESS PERIOD  3 READ UNFORMATTED ON UNIT 10
                    --------------------------------------------------------------------------------------------

                    "QYY             " FLOW TERMS FOR TIME STEP  2, STRESS PERIOD  3 READ UNFORMATTED ON UNIT 10
                    --------------------------------------------------------------------------------------------

                    "QZZ             " FLOW TERMS FOR TIME STEP  2, STRESS PERIOD  3 READ UNFORMATTED ON UNIT 10
                    --------------------------------------------------------------------------------------------

                    "STO             " FLOW TERMS FOR TIME STEP  2, STRESS PERIOD  3 READ UNFORMATTED ON UNIT 10
                    --------------------------------------------------------------------------------------------

 MAXIMUM STEPSIZE DURING WHICH ANY PARTICLE CANNOT MOVE MORE THAN ONE CELL
 =  423.6    (WHEN MIN. R.F.=1)  AT K=   2, I=   5, J=   5

 MAXIMUM STEPSIZE WHICH MEETS STABILITY CRITERION OF THE ADVECTION TERM
 (FOR PURE FINITE-DIFFERENCE OPTION, MIXELM=0) 
 =  137.1    (WHEN MIN. R.F.=1)  AT K=   2, I=   5, J=   5

                    "CNH             " FLOW TERMS FOR TIME STEP  2, STRESS PERIOD  3 READ UNFORMATTED ON UNIT 10
                    --------------------------------------------------------------------------------------------

                    "WEL             " FLOW TERMS FOR TIME STEP  2, STRESS PERIOD  3 READ UNFORMATTED ON UNIT 10
                    --------------------------------------------------------------------------------------------

                    "GHB             " FLOW TERMS FOR TIME STEP  2, STRESS PERIOD  3 READ UNFORMATTED ON UNIT 10
                    --------------------------------------------------------------------------------------------


 TOTAL NUMBER OF POINT SOURCES/SINKS PRESENT IN THE FLOW MODEL =    41

 MAXIMUM STEPSIZE WHICH MEETS STABILITY CRITERION OF THE SINK & SOURCE TERM
 =  90.00    (WHEN MIN. R.F.=1)  AT K=   1, I=   5, J=   5

 MAXIMUM STEPSIZE WHICH MEETS STABILITY CRITERION OF THE DISPERSION TERM
 =  269.7    (WHEN MIN. R.F.=1)  AT K=   1, I=   5, J=   5


     1 CALLS TO GCG PACKAGE FOR TRANSPORT TIME STEP   1 IN FLOW TIME STEP   2 STRESS PERIOD   3
     2 TOTAL ITERATIONS
  MAXIMUM CONCENTRATION CHANGES FOR EACH ITERATION:
  MAX. CHANGE LAYER,ROW,COL MAX. CHANGE LAYER,ROW,COL MAX. CHANGE LAYER,ROW,COL MAX. CHANGE LAYER,ROW,COL MAX. CHANGE LAYER,ROW,COL
 ------------------------------------------------------------------------------------------------------------------------------------
   0.1359E-01 (  1,  5,  5)  0.4657E-09 (  1,  5,  6)


                                          ================================================
                                                         TIME STEP NO.  003
                                          ================================================

 FROM TIME =   103.00     TO    104.00    


                    "THKSAT          " FLOW TERMS FOR TIME STEP  3, STRESS PERIOD  3 READ UNFORMATTED ON UNIT 10
                    --------------------------------------------------------------------------------------------

                    "QXX             " FLOW TERMS FOR TIME STEP  3, STRESS PERIOD  3 READ UNFORMATTED ON UNIT 10
                    --------------------------------------------------------------------------------------------

                    "QYY             " FLOW TERMS FOR TIME STEP  3, STRESS PERIOD  3 READ UNFORMATTED ON UNIT 10
                    --------------------------------------------------------------------------------------------

                    "QZZ             " FLOW TERMS FOR TIME STEP  3, STRESS PERIOD  3 READ UNFORMATTED ON UNIT 10
                    --------------------------------------------------------------------------------------------

                    "STO             " FLOW TERMS FOR TIME STEP  3, STRESS PERIOD  3 READ UNFORMATTED ON UNIT 10
                    --------------------------------------------------------------------------------------------

 MAXIMUM STEPSIZE DURING WHICH ANY PARTICLE CANNOT MOVE MORE THAN ONE CELL
 =  423.4    (WHEN MIN. R.F.=1)  AT K=   2, I=   5, J=   5

 MAXIMUM STEPSIZE WHICH MEETS STABILITY CRITERION OF THE ADVECTION TERM
 (FOR PURE FINITE-DIFFERENCE OPTION, MIXELM=0) 
 =  135.7    (WHEN MIN. R.F.=1)  AT K=   2, I=   5, J=   5

                    "CNH             " FLOW TERMS FOR TIME STEP  3, STRESS PERIOD  3 READ UNFORMATTED ON UNIT 10
                    --------------------------------------------------------------------------------------------

                    "WEL             " FLOW TERMS FOR TIME STEP  3, STRESS PERIOD  3 READ UNFORMATTED ON UNIT 10
                    --------------------------------------------------------------------------------------------

                    "GHB             " FLOW TERMS FOR TIME STEP  3, STRESS PERIOD  3 READ UNFORMATTED ON UNIT 10
                    --------------------------------------------------------------------------------------------


 TOTAL NUMBER OF POINT SOURCES/SINKS PRESENT IN THE FLOW MODEL =    41

 MAXIMUM STEPSIZE WHICH MEETS STABILITY CRITERION OF THE SINK & SOURCE TERM
 =  90.00    (WHEN MIN. R.F.=1)  AT K=   1, I=   5, J=   5

 MAXIMUM STEPSIZE WHICH MEETS STABILITY CRITERION OF THE DISPERSION TERM
 =  269.0    (WHEN MIN. R.F.=1)  AT K=   1, I=   5, J=   5


     1 CALLS TO GCG PACKAGE FOR TRANSPORT TIME STEP   1 IN FLOW TIME STEP   3 STRESS PERIOD   3
     2 TOTAL ITERATIONS
  MAXIMUM CONCENTRATION CHANGES FOR EACH ITERATION:
  MAX. CHANGE LAYER,ROW,COL MAX. CHANGE LAYER,ROW,COL MAX. CHANGE LAYER,ROW,COL MAX. CHANGE LAYER,ROW,COL MAX. CHANGE LAYER,ROW,COL
 ------------------------------------------------------------------------------------------------------------------------------------
   0.1323E-01 (  1,  5,  5)  0.4657E-09 (  1,  5,  6)


                                          ================================================
                                                         TIME STEP NO.  004
                                          ================================================

 FROM TIME =   104.00     TO    105.00    


                    "THKSAT          " FLOW TERMS FOR TIME STEP  4, STRESS PERIOD  3 READ UNFORMATTED ON UNIT 10
                    --------------------------------------------------------------------------------------------

                    "QXX             " FLOW TERMS FOR TIME STEP  4, STRESS PERIOD  3 READ UNFORMATTED ON UNIT 10
                    --------------------------------------------------------------------------------------------

                    "QYY             " FLOW TERMS FOR TIME STEP  4, STRESS PERIOD  3 READ UNFORMATTED ON UNIT 10
                    --------------------------------------------------------------------------------------------

                    "QZZ             " FLOW TERMS FOR TIME STEP  4, STRESS PERIOD  3 READ UNFORMATTED ON UNIT 10
                    --------------------------------------------------------------------------------------------

                    "STO             " FLOW TERMS FOR TIME STEP  4, STRESS PERIOD  3 READ UNFORMATTED ON UNIT 10
                    --------------------------------------------------------------------------------------------

 MAXIMUM STEPSIZE DURING WHICH ANY PARTICLE CANNOT MOVE MORE THAN ONE CELL
 =  423.4    (WHEN MIN. R.F.=1)  AT K=   2, I=   5, J=   5

 MAXIMUM STEPSIZE WHICH MEETS STABILITY CRITERION OF THE ADVECTION TERM
 (FOR PURE FINITE-DIFFERENCE OPTION, MIXELM=0) 
 =  135.2    (WHEN MIN. R.F.=1)  AT K=   2, I=   5, J=   5

                    "CNH             " FLOW TERMS FOR TIME STEP  4, STRESS PERIOD  3 READ UNFORMATTED ON UNIT 10
                    --------------------------------------------------------------------------------------------

                    "WEL             " FLOW TERMS FOR TIME STEP  4, STRESS PERIOD  3 READ UNFORMATTED ON UNIT 10
                    --------------------------------------------------------------------------------------------

                    "GHB             " FLOW TERMS FOR TIME STEP  4, STRESS PERIOD  3 READ UNFORMATTED ON UNIT 10
                    --------------------------------------------------------------------------------------------


 TOTAL NUMBER OF POINT SOURCES/SINKS PRESENT IN THE FLOW MODEL =    41

 MAXIMUM STEPSIZE WHICH MEETS STABILITY CRITERION OF THE SINK & SOURCE TERM
 =  90.00    (WHEN MIN. R.F.=1)  AT K=   1, I=   5, J=   5

 MAXIMUM STEPSIZE WHICH MEETS STABILITY CRITERION OF THE DISPERSION TERM
 =  268.8    (WHEN MIN. R.F.=1)  AT K=   1, I=   5, J=   5


     1 CALLS TO GCG PACKAGE FOR TRANSPORT TIME STEP   1 IN FLOW TIME STEP   4 STRESS PERIOD   3
     2 TOTAL ITERATIONS
  MAXIMUM CONCENTRATION CHANGES FOR EACH ITERATION:
  MAX. CHANGE LAYER,ROW,COL MAX. CHANGE LAYER,ROW,COL MAX. CHANGE LAYER,ROW,COL MAX. CHANGE LAYER,ROW,COL MAX. CHANGE LAYER,ROW,COL
 ------------------------------------------------------------------------------------------------------------------------------------
   0.1288E-01 (  1,  5,  5)  0.4657E-09 (  1,  5,  6)


                                          ================================================
                                                         TIME STEP NO.  005
                                          ================================================

 FROM TIME =   105.00     TO    106.00    


                    "THKSAT          " FLOW TERMS FOR TIME STEP  5, STRESS PERIOD  3 READ UNFORMATTED ON UNIT 10
                    --------------------------------------------------------------------------------------------

                    "QXX             " FLOW TERMS FOR TIME STEP  5, STRESS PERIOD  3 READ UNFORMATTED ON UNIT 10
                    --------------------------------------------------------------------------------------------

                    "QYY             " FLOW TERMS FOR TIME STEP  5, STRESS PERIOD  3 READ UNFORMATTED ON UNIT 10
                    --------------------------------------------------------------------------------------------

                    "QZZ             " FLOW TERMS FOR TIME STEP  5, STRESS PERIOD  3 READ UNFORMATTED ON UNIT 10
                    --------------------------------------------------------------------------------------------

                    "STO             " FLOW TERMS FOR TIME STEP  5, STRESS PERIOD  3 READ UNFORMATTED ON UNIT 10
                    --------------------------------------------------------------------------------------------

 MAXIMUM STEPSIZE DURING WHICH ANY PARTICLE CANNOT MOVE MORE THAN ONE CELL
 =  423.3    (WHEN MIN. R.F.=1)  AT K=   2, I=   5, J=   5

 MAXIMUM STEPSIZE WHICH MEETS STABILITY CRITERION OF THE ADVECTION TERM
 (FOR PURE FINITE-DIFFERENCE OPTION, MIXELM=0) 
 =  135.1    (WHEN MIN. R.F.=1)  AT K=   2, I=   5, J=   5

                    "CNH             " FLOW TERMS FOR TIME STEP  5, STRESS PERIOD  3 READ UNFORMATTED ON UNIT 10
                    --------------------------------------------------------------------------------------------

                    "WEL             " FLOW TERMS FOR TIME STEP  5, STRESS PERIOD  3 READ UNFORMATTED ON UNIT 10
                    --------------------------------------------------------------------------------------------

                    "GHB             " FLOW TERMS FOR TIME STEP  5, STRESS PERIOD  3 READ UNFORMATTED ON UNIT 10
                    --------------------------------------------------------------------------------------------


 TOTAL NUMBER OF POINT SOURCES/SINKS PRESENT IN THE FLOW MODEL =    41

 MAXIMUM STEPSIZE WHICH MEETS STABILITY CRITERION OF THE SINK & SOURCE TERM
 =  90.00    (WHEN MIN. R.F.=1)  AT K=   1, I=   5, J=   5

 MAXIMUM STEPSIZE WHICH MEETS STABILITY CRITERION OF THE DISPERSION TERM
 =  268.7    (WHEN MIN. R.F.=1)  AT K=   1, I=   5, J=   5


     1 CALLS TO GCG PACKAGE FOR TRANSPORT TIME STEP   1 IN FLOW TIME STEP   5 STRESS PERIOD   3
     2 TOTAL ITERATIONS
  MAXIMUM CONCENTRATION CHANGES FOR EACH ITERATION:
  MAX. CHANGE LAYER,ROW,COL MAX. CHANGE LAYER,ROW,COL MAX. CHANGE LAYER,ROW,COL MAX. CHANGE LAYER,ROW,COL MAX. CHANGE LAYER,ROW,COL
 ------------------------------------------------------------------------------------------------------------------------------------
   0.1255E-01 (  1,  5,  5)  0.4657E-09 (  1,  5,  6)


                                          ================================================
                                                         TIME STEP NO.  006
                                          ================================================

 FROM TIME =   106.00     TO    107.00    


                    "THKSAT          " FLOW TERMS FOR TIME STEP  6, STRESS PERIOD  3 READ UNFORMATTED ON UNIT 10
                    --------------------------------------------------------------------------------------------

                    "QXX             " FLOW TERMS FOR TIME STEP  6, STRESS PERIOD  3 READ UNFORMATTED ON UNIT 10
                    --------------------------------------------------------------------------------------------

                    "QYY             " FLOW TERMS FOR TIME STEP  6, STRESS PERIOD  3 READ UNFORMATTED ON UNIT 10
                    --------------------------------------------------------------------------------------------

                    "QZZ             " FLOW TERMS FOR TIME STEP  6, STRESS PERIOD  3 READ UNFORMATTED ON UNIT 10
                    --------------------------------------------------------------------------------------------

                    "STO             " FLOW TERMS FOR TIME STEP  6, STRESS PERIOD  3 READ UNFORMATTED ON UNIT 10
                    --------------------------------------------------------------------------------------------

 MAXIMUM STEPSIZE DURING WHICH ANY PARTICLE CANNOT MOVE MORE THAN ONE CELL
 =  422.8    (WHEN MIN. R.F.=1)  AT K=   2, I=   5, J=   5

 MAXIMUM STEPSIZE WHICH MEETS STABILITY CRITERION OF THE ADVECTION TERM
 (FOR PURE FINITE-DIFFERENCE OPTION, MIXELM=0) 
 =  135.2    (WHEN MIN. R.F.=1)  AT K=   2, I=   5, J=   5

                    "CNH             " FLOW TERMS FOR TIME STEP  6, STRESS PERIOD  3 READ UNFORMATTED ON UNIT 10
                    --------------------------------------------------------------------------------------------

                    "WEL             " FLOW TERMS FOR TIME STEP  6, STRESS PERIOD  3 READ UNFORMATTED ON UNIT 10
                    --------------------------------------------------------------------------------------------

                    "GHB             " FLOW TERMS FOR TIME STEP  6, STRESS PERIOD  3 READ UNFORMATTED ON UNIT 10
                    --------------------------------------------------------------------------------------------


 TOTAL NUMBER OF POINT SOURCES/SINKS PRESENT IN THE FLOW MODEL =    41

 MAXIMUM STEPSIZE WHICH MEETS STABILITY CRITERION OF THE SINK & SOURCE TERM
 =  90.00    (WHEN MIN. R.F.=1)  AT K=   1, I=   5, J=   5

 MAXIMUM STEPSIZE WHICH MEETS STABILITY CRITERION OF THE DISPERSION TERM
 =  268.4    (WHEN MIN. R.F.=1)  AT K=   1, I=   5, J=   5


     1 CALLS TO GCG PACKAGE FOR TRANSPORT TIME STEP   1 IN FLOW TIME STEP   6 STRESS PERIOD   3
     2 TOTAL ITERATIONS
  MAXIMUM CONCENTRATION CHANGES FOR EACH ITERATION:
  MAX. CHANGE LAYER,ROW,COL MAX. CHANGE LAYER,ROW,COL MAX. CHANGE LAYER,ROW,COL MAX. CHANGE LAYER,ROW,COL MAX. CHANGE LAYER,ROW,COL
 ------------------------------------------------------------------------------------------------------------------------------------
   0.1222E-01 (  1,  5,  5)  0.4657E-09 (  1,  5,  6)


                                          ================================================
                                                         TIME STEP NO.  007
                                          ================================================

 FROM TIME =   107.00     TO    108.00    


                    "THKSAT          " FLOW TERMS FOR TIME STEP  7, STRESS PERIOD  3 READ UNFORMATTED ON UNIT 10
                    --------------------------------------------------------------------------------------------

                    "QXX             " FLOW TERMS FOR TIME STEP  7, STRESS PERIOD  3 READ UNFORMATTED ON UNIT 10
                    --------------------------------------------------------------------------------------------

                    "QYY             " FLOW TERMS FOR TIME STEP  7, STRESS PERIOD  3 READ UNFORMATTED ON UNIT 10
                    --------------------------------------------------------------------------------------------

                    "QZZ             " FLOW TERMS FOR TIME STEP  7, STRESS PERIOD  3 READ UNFORMATTED ON UNIT 10
                    --------------------------------------------------------------------------------------------

                    "STO             " FLOW TERMS FOR TIME STEP  7, STRESS PERIOD  3 READ UNFORMATTED ON UNIT 10
                    --------------------------------------------------------------------------------------------

 MAXIMUM STEPSIZE DURING WHICH ANY PARTICLE CANNOT MOVE MORE THAN ONE CELL
 =  422.3    (WHEN MIN. R.F.=1)  AT K=   2, I=   5, J=   5

 MAXIMUM STEPSIZE WHICH MEETS STABILITY CRITERION OF THE ADVECTION TERM
 (FOR PURE FINITE-DIFFERENCE OPTION, MIXELM=0) 
 =  135.4    (WHEN MIN. R.F.=1)  AT K=   2, I=   5, J=   5

                    "CNH             " FLOW TERMS FOR TIME STEP  7, STRESS PERIOD  3 READ UNFORMATTED ON UNIT 10
                    --------------------------------------------------------------------------------------------

                    "WEL             " FLOW TERMS FOR TIME STEP  7, STRESS PERIOD  3 READ UNFORMATTED ON UNIT 10
                    --------------------------------------------------------------------------------------------

                    "GHB             " FLOW TERMS FOR TIME STEP  7, STRESS PERIOD  3 READ UNFORMATTED ON UNIT 10
                    --------------------------------------------------------------------------------------------


 TOTAL NUMBER OF POINT SOURCES/SINKS PRESENT IN THE FLOW MODEL =    41

 MAXIMUM STEPSIZE WHICH MEETS STABILITY CRITERION OF THE SINK & SOURCE TERM
 =  90.00    (WHEN MIN. R.F.=1)  AT K=   1, I=   5, J=   5

 MAXIMUM STEPSIZE WHICH MEETS STABILITY CRITERION OF THE DISPERSION TERM
 =  268.0    (WHEN MIN. R.F.=1)  AT K=   1, I=   5, J=   5


     1 CALLS TO GCG PACKAGE FOR TRANSPORT TIME STEP   1 IN FLOW TIME STEP   7 STRESS PERIOD   3
     2 TOTAL ITERATIONS
  MAXIMUM CONCENTRATION CHANGES FOR EACH ITERATION:
  MAX. CHANGE LAYER,ROW,COL MAX. CHANGE LAYER,ROW,COL MAX. CHANGE LAYER,ROW,COL MAX. CHANGE LAYER,ROW,COL MAX. CHANGE LAYER,ROW,COL
 ------------------------------------------------------------------------------------------------------------------------------------
   0.1191E-01 (  1,  5,  5)  0.4657E-09 (  1,  5,  6)


                                          ================================================
                                                         TIME STEP NO.  008
                                          ================================================

 FROM TIME =   108.00     TO    109.00    


                    "THKSAT          " FLOW TERMS FOR TIME STEP  8, STRESS PERIOD  3 READ UNFORMATTED ON UNIT 10
                    --------------------------------------------------------------------------------------------

                    "QXX             " FLOW TERMS FOR TIME STEP  8, STRESS PERIOD  3 READ UNFORMATTED ON UNIT 10
                    --------------------------------------------------------------------------------------------

                    "QYY             " FLOW TERMS FOR TIME STEP  8, STRESS PERIOD  3 READ UNFORMATTED ON UNIT 10
                    --------------------------------------------------------------------------------------------

                    "QZZ             " FLOW TERMS FOR TIME STEP  8, STRESS PERIOD  3 READ UNFORMATTED ON UNIT 10
                    --------------------------------------------------------------------------------------------

                    "STO             " FLOW TERMS FOR TIME STEP  8, STRESS PERIOD  3 READ UNFORMATTED ON UNIT 10
                    --------------------------------------------------------------------------------------------

 MAXIMUM STEPSIZE DURING WHICH ANY PARTICLE CANNOT MOVE MORE THAN ONE CELL
 =  422.3    (WHEN MIN. R.F.=1)  AT K=   2, I=   5, J=   5

 MAXIMUM STEPSIZE WHICH MEETS STABILITY CRITERION OF THE ADVECTION TERM
 (FOR PURE FINITE-DIFFERENCE OPTION, MIXELM=0) 
 =  135.3    (WHEN MIN. R.F.=1)  AT K=   2, I=   5, J=   5

                    "CNH             " FLOW TERMS FOR TIME STEP  8, STRESS PERIOD  3 READ UNFORMATTED ON UNIT 10
                    --------------------------------------------------------------------------------------------

                    "WEL             " FLOW TERMS FOR TIME STEP  8, STRESS PERIOD  3 READ UNFORMATTED ON UNIT 10
                    --------------------------------------------------------------------------------------------

                    "GHB             " FLOW TERMS FOR TIME STEP  8, STRESS PERIOD  3 READ UNFORMATTED ON UNIT 10
                    --------------------------------------------------------------------------------------------


 TOTAL NUMBER OF POINT SOURCES/SINKS PRESENT IN THE FLOW MODEL =    41

 MAXIMUM STEPSIZE WHICH MEETS STABILITY CRITERION OF THE SINK & SOURCE TERM
 =  90.00    (WHEN MIN. R.F.=1)  AT K=   1, I=   5, J=   5

 MAXIMUM STEPSIZE WHICH MEETS STABILITY CRITERION OF THE DISPERSION TERM
 =  267.8    (WHEN MIN. R.F.=1)  AT K=   1, I=   5, J=   5


     1 CALLS TO GCG PACKAGE FOR TRANSPORT TIME STEP   1 IN FLOW TIME STEP   8 STRESS PERIOD   3
     2 TOTAL ITERATIONS
  MAXIMUM CONCENTRATION CHANGES FOR EACH ITERATION:
  MAX. CHANGE LAYER,ROW,COL MAX. CHANGE LAYER,ROW,COL MAX. CHANGE LAYER,ROW,COL MAX. CHANGE LAYER,ROW,COL MAX. CHANGE LAYER,ROW,COL
 ------------------------------------------------------------------------------------------------------------------------------------
   0.1162E-01 (  1,  5,  5)  0.4657E-09 (  1,  5,  6)


                                          ================================================
                                                         TIME STEP NO.  009
                                          ================================================

 FROM TIME =   109.00     TO    110.00    


                    "THKSAT          " FLOW TERMS FOR TIME STEP  9, STRESS PERIOD  3 READ UNFORMATTED ON UNIT 10
                    --------------------------------------------------------------------------------------------

                    "QXX             " FLOW TERMS FOR TIME STEP  9, STRESS PERIOD  3 READ UNFORMATTED ON UNIT 10
                    --------------------------------------------------------------------------------------------

                    "QYY             " FLOW TERMS FOR TIME STEP  9, STRESS PERIOD  3 READ UNFORMATTED ON UNIT 10
                    --------------------------------------------------------------------------------------------

                    "QZZ             " FLOW TERMS FOR TIME STEP  9, STRESS PERIOD  3 READ UNFORMATTED ON UNIT 10
                    --------------------------------------------------------------------------------------------

                    "STO             " FLOW TERMS FOR TIME STEP  9, STRESS PERIOD  3 READ UNFORMATTED ON UNIT 10
                    --------------------------------------------------------------------------------------------

 MAXIMUM STEPSIZE DURING WHICH ANY PARTICLE CANNOT MOVE MORE THAN ONE CELL
 =  422.3    (WHEN MIN. R.F.=1)  AT K=   2, I=   5, J=   5

 MAXIMUM STEPSIZE WHICH MEETS STABILITY CRITERION OF THE ADVECTION TERM
 (FOR PURE FINITE-DIFFERENCE OPTION, MIXELM=0) 
 =  135.3    (WHEN MIN. R.F.=1)  AT K=   2, I=   5, J=   5

                    "CNH             " FLOW TERMS FOR TIME STEP  9, STRESS PERIOD  3 READ UNFORMATTED ON UNIT 10
                    --------------------------------------------------------------------------------------------

                    "WEL             " FLOW TERMS FOR TIME STEP  9, STRESS PERIOD  3 READ UNFORMATTED ON UNIT 10
                    --------------------------------------------------------------------------------------------

                    "GHB             " FLOW TERMS FOR TIME STEP  9, STRESS PERIOD  3 READ UNFORMATTED ON UNIT 10
                    --------------------------------------------------------------------------------------------


 TOTAL NUMBER OF POINT SOURCES/SINKS PRESENT IN THE FLOW MODEL =    41

 MAXIMUM STEPSIZE WHICH MEETS STABILITY CRITERION OF THE SINK & SOURCE TERM
 =  90.00    (WHEN MIN. R.F.=1)  AT K=   1, I=   5, J=   5

 MAXIMUM STEPSIZE WHICH MEETS STABILITY CRITERION OF THE DISPERSION TERM
 =  267.8    (WHEN MIN. R.F.=1)  AT K=   1, I=   5, J=   5


     1 CALLS TO GCG PACKAGE FOR TRANSPORT TIME STEP   1 IN FLOW TIME STEP   9 STRESS PERIOD   3
     2 TOTAL ITERATIONS
  MAXIMUM CONCENTRATION CHANGES FOR EACH ITERATION:
  MAX. CHANGE LAYER,ROW,COL MAX. CHANGE LAYER,ROW,COL MAX. CHANGE LAYER,ROW,COL MAX. CHANGE LAYER,ROW,COL MAX. CHANGE LAYER,ROW,COL
 ------------------------------------------------------------------------------------------------------------------------------------
   0.1133E-01 (  1,  5,  5)  0.4657E-09 (  1,  5,  6)


                                          ================================================
                                                         TIME STEP NO.  010
                                          ================================================

 FROM TIME =   110.00     TO    111.00    


                    "THKSAT          " FLOW TERMS FOR TIME STEP 10, STRESS PERIOD  3 READ UNFORMATTED ON UNIT 10
                    --------------------------------------------------------------------------------------------

                    "QXX             " FLOW TERMS FOR TIME STEP 10, STRESS PERIOD  3 READ UNFORMATTED ON UNIT 10
                    --------------------------------------------------------------------------------------------

                    "QYY             " FLOW TERMS FOR TIME STEP 10, STRESS PERIOD  3 READ UNFORMATTED ON UNIT 10
                    --------------------------------------------------------------------------------------------

                    "QZZ             " FLOW TERMS FOR TIME STEP 10, STRESS PERIOD  3 READ UNFORMATTED ON UNIT 10
                    --------------------------------------------------------------------------------------------

                    "STO             " FLOW TERMS FOR TIME STEP 10, STRESS PERIOD  3 READ UNFORMATTED ON UNIT 10
                    --------------------------------------------------------------------------------------------

 MAXIMUM STEPSIZE DURING WHICH ANY PARTICLE CANNOT MOVE MORE THAN ONE CELL
 =  422.3    (WHEN MIN. R.F.=1)  AT K=   2, I=   5, J=   5

 MAXIMUM STEPSIZE WHICH MEETS STABILITY CRITERION OF THE ADVECTION TERM
 (FOR PURE FINITE-DIFFERENCE OPTION, MIXELM=0) 
 =  135.3    (WHEN MIN. R.F.=1)  AT K=   2, I=   5, J=   5

                    "CNH             " FLOW TERMS FOR TIME STEP 10, STRESS PERIOD  3 READ UNFORMATTED ON UNIT 10
                    --------------------------------------------------------------------------------------------

                    "WEL             " FLOW TERMS FOR TIME STEP 10, STRESS PERIOD  3 READ UNFORMATTED ON UNIT 10
                    --------------------------------------------------------------------------------------------

                    "GHB             " FLOW TERMS FOR TIME STEP 10, STRESS PERIOD  3 READ UNFORMATTED ON UNIT 10
                    --------------------------------------------------------------------------------------------


 TOTAL NUMBER OF POINT SOURCES/SINKS PRESENT IN THE FLOW MODEL =    41

 MAXIMUM STEPSIZE WHICH MEETS STABILITY CRITERION OF THE SINK & SOURCE TERM
 =  90.00    (WHEN MIN. R.F.=1)  AT K=   1, I=   5, J=   5

 MAXIMUM STEPSIZE WHICH MEETS STABILITY CRITERION OF THE DISPERSION TERM
 =  267.7    (WHEN MIN. R.F.=1)  AT K=   1, I=   5, J=   5


     1 CALLS TO GCG PACKAGE FOR TRANSPORT TIME STEP   1 IN FLOW TIME STEP  10 STRESS PERIOD   3
     2 TOTAL ITERATIONS
  MAXIMUM CONCENTRATION CHANGES FOR EACH ITERATION:
  MAX. CHANGE LAYER,ROW,COL MAX. CHANGE LAYER,ROW,COL MAX. CHANGE LAYER,ROW,COL MAX. CHANGE LAYER,ROW,COL MAX. CHANGE LAYER,ROW,COL
 ------------------------------------------------------------------------------------------------------------------------------------
   0.1106E-01 (  1,  5,  5)  0.4657E-09 (  1,  5,  6)


                                          ================================================
                                                         TIME STEP NO.  011
                                          ================================================

 FROM TIME =   111.00     TO    112.00    


                    "THKSAT          " FLOW TERMS FOR TIME STEP 11, STRESS PERIOD  3 READ UNFORMATTED ON UNIT 10
                    --------------------------------------------------------------------------------------------

                    "QXX             " FLOW TERMS FOR TIME STEP 11, STRESS PERIOD  3 READ UNFORMATTED ON UNIT 10
                    --------------------------------------------------------------------------------------------

                    "QYY             " FLOW TERMS FOR TIME STEP 11, STRESS PERIOD  3 READ UNFORMATTED ON UNIT 10
                    --------------------------------------------------------------------------------------------

                    "QZZ             " FLOW TERMS FOR TIME STEP 11, STRESS PERIOD  3 READ UNFORMATTED ON UNIT 10
                    --------------------------------------------------------------------------------------------

                    "STO             " FLOW TERMS FOR TIME STEP 11, STRESS PERIOD  3 READ UNFORMATTED ON UNIT 10
                    --------------------------------------------------------------------------------------------

 MAXIMUM STEPSIZE DURING WHICH ANY PARTICLE CANNOT MOVE MORE THAN ONE CELL
 =  422.3    (WHEN MIN. R.F.=1)  AT K=   2, I=   5, J=   5

 MAXIMUM STEPSIZE WHICH MEETS STABILITY CRITERION OF THE ADVECTION TERM
 (FOR PURE FINITE-DIFFERENCE OPTION, MIXELM=0) 
 =  135.3    (WHEN MIN. R.F.=1)  AT K=   2, I=   5, J=   5

                    "CNH             " FLOW TERMS FOR TIME STEP 11, STRESS PERIOD  3 READ UNFORMATTED ON UNIT 10
                    --------------------------------------------------------------------------------------------

                    "WEL             " FLOW TERMS FOR TIME STEP 11, STRESS PERIOD  3 READ UNFORMATTED ON UNIT 10
                    --------------------------------------------------------------------------------------------

                    "GHB             " FLOW TERMS FOR TIME STEP 11, STRESS PERIOD  3 READ UNFORMATTED ON UNIT 10
                    --------------------------------------------------------------------------------------------


 TOTAL NUMBER OF POINT SOURCES/SINKS PRESENT IN THE FLOW MODEL =    41

 MAXIMUM STEPSIZE WHICH MEETS STABILITY CRITERION OF THE SINK & SOURCE TERM
 =  90.00    (WHEN MIN. R.F.=1)  AT K=   1, I=   5, J=   5

 MAXIMUM STEPSIZE WHICH MEETS STABILITY CRITERION OF THE DISPERSION TERM
 =  267.7    (WHEN MIN. R.F.=1)  AT K=   1, I=   5, J=   5


     1 CALLS TO GCG PACKAGE FOR TRANSPORT TIME STEP   1 IN FLOW TIME STEP  11 STRESS PERIOD   3
     2 TOTAL ITERATIONS
  MAXIMUM CONCENTRATION CHANGES FOR EACH ITERATION:
  MAX. CHANGE LAYER,ROW,COL MAX. CHANGE LAYER,ROW,COL MAX. CHANGE LAYER,ROW,COL MAX. CHANGE LAYER,ROW,COL MAX. CHANGE LAYER,ROW,COL
 ------------------------------------------------------------------------------------------------------------------------------------
   0.1079E-01 (  1,  5,  5)  0.4657E-09 (  1,  5,  6)


                                          ================================================
                                                         TIME STEP NO.  012
                                          ================================================

 FROM TIME =   112.00     TO    113.00    


                    "THKSAT          " FLOW TERMS FOR TIME STEP 12, STRESS PERIOD  3 READ UNFORMATTED ON UNIT 10
                    --------------------------------------------------------------------------------------------

                    "QXX             " FLOW TERMS FOR TIME STEP 12, STRESS PERIOD  3 READ UNFORMATTED ON UNIT 10
                    --------------------------------------------------------------------------------------------

                    "QYY             " FLOW TERMS FOR TIME STEP 12, STRESS PERIOD  3 READ UNFORMATTED ON UNIT 10
                    --------------------------------------------------------------------------------------------

                    "QZZ             " FLOW TERMS FOR TIME STEP 12, STRESS PERIOD  3 READ UNFORMATTED ON UNIT 10
                    --------------------------------------------------------------------------------------------

                    "STO             " FLOW TERMS FOR TIME STEP 12, STRESS PERIOD  3 READ UNFORMATTED ON UNIT 10
                    --------------------------------------------------------------------------------------------

 MAXIMUM STEPSIZE DURING WHICH ANY PARTICLE CANNOT MOVE MORE THAN ONE CELL
 =  422.3    (WHEN MIN. R.F.=1)  AT K=   2, I=   5, J=   5

 MAXIMUM STEPSIZE WHICH MEETS STABILITY CRITERION OF THE ADVECTION TERM
 (FOR PURE FINITE-DIFFERENCE OPTION, MIXELM=0) 
 =  135.3    (WHEN MIN. R.F.=1)  AT K=   2, I=   5, J=   5

                    "CNH             " FLOW TERMS FOR TIME STEP 12, STRESS PERIOD  3 READ UNFORMATTED ON UNIT 10
                    --------------------------------------------------------------------------------------------

                    "WEL             " FLOW TERMS FOR TIME STEP 12, STRESS PERIOD  3 READ UNFORMATTED ON UNIT 10
                    --------------------------------------------------------------------------------------------

                    "GHB             " FLOW TERMS FOR TIME STEP 12, STRESS PERIOD  3 READ UNFORMATTED ON UNIT 10
                    --------------------------------------------------------------------------------------------


 TOTAL NUMBER OF POINT SOURCES/SINKS PRESENT IN THE FLOW MODEL =    41

 MAXIMUM STEPSIZE WHICH MEETS STABILITY CRITERION OF THE SINK & SOURCE TERM
 =  90.00    (WHEN MIN. R.F.=1)  AT K=   1, I=   5, J=   5

 MAXIMUM STEPSIZE WHICH MEETS STABILITY CRITERION OF THE DISPERSION TERM
 =  267.7    (WHEN MIN. R.F.=1)  AT K=   1, I=   5, J=   5


     1 CALLS TO GCG PACKAGE FOR TRANSPORT TIME STEP   1 IN FLOW TIME STEP  12 STRESS PERIOD   3
     2 TOTAL ITERATIONS
  MAXIMUM CONCENTRATION CHANGES FOR EACH ITERATION:
  MAX. CHANGE LAYER,ROW,COL MAX. CHANGE LAYER,ROW,COL MAX. CHANGE LAYER,ROW,COL MAX. CHANGE LAYER,ROW,COL MAX. CHANGE LAYER,ROW,COL
 ------------------------------------------------------------------------------------------------------------------------------------
   0.1054E-01 (  1,  5,  5)  0.4657E-09 (  1,  6,  5)


                                          ================================================
                                                         TIME STEP NO.  013
                                          ================================================

 FROM TIME =   113.00     TO    114.00    


                    "THKSAT          " FLOW TERMS FOR TIME STEP 13, STRESS PERIOD  3 READ UNFORMATTED ON UNIT 10
                    --------------------------------------------------------------------------------------------

                    "QXX             " FLOW TERMS FOR TIME STEP 13, STRESS PERIOD  3 READ UNFORMATTED ON UNIT 10
                    --------------------------------------------------------------------------------------------

                    "QYY             " FLOW TERMS FOR TIME STEP 13, STRESS PERIOD  3 READ UNFORMATTED ON UNIT 10
                    --------------------------------------------------------------------------------------------

                    "QZZ             " FLOW TERMS FOR TIME STEP 13, STRESS PERIOD  3 READ UNFORMATTED ON UNIT 10
                    --------------------------------------------------------------------------------------------

                    "STO             " FLOW TERMS FOR TIME STEP 13, STRESS PERIOD  3 READ UNFORMATTED ON UNIT 10
                    --------------------------------------------------------------------------------------------

 MAXIMUM STEPSIZE DURING WHICH ANY PARTICLE CANNOT MOVE MORE THAN ONE CELL
 =  422.3    (WHEN MIN. R.F.=1)  AT K=   2, I=   5, J=   5

 MAXIMUM STEPSIZE WHICH MEETS STABILITY CRITERION OF THE ADVECTION TERM
 (FOR PURE FINITE-DIFFERENCE OPTION, MIXELM=0) 
 =  135.3    (WHEN MIN. R.F.=1)  AT K=   2, I=   5, J=   5

                    "CNH             " FLOW TERMS FOR TIME STEP 13, STRESS PERIOD  3 READ UNFORMATTED ON UNIT 10
                    --------------------------------------------------------------------------------------------

                    "WEL             " FLOW TERMS FOR TIME STEP 13, STRESS PERIOD  3 READ UNFORMATTED ON UNIT 10
                    --------------------------------------------------------------------------------------------

                    "GHB             " FLOW TERMS FOR TIME STEP 13, STRESS PERIOD  3 READ UNFORMATTED ON UNIT 10
                    --------------------------------------------------------------------------------------------


 TOTAL NUMBER OF POINT SOURCES/SINKS PRESENT IN THE FLOW MODEL =    41

 MAXIMUM STEPSIZE WHICH MEETS STABILITY CRITERION OF THE SINK & SOURCE TERM
 =  90.00    (WHEN MIN. R.F.=1)  AT K=   1, I=   5, J=   5

 MAXIMUM STEPSIZE WHICH MEETS STABILITY CRITERION OF THE DISPERSION TERM
 =  267.7    (WHEN MIN. R.F.=1)  AT K=   1, I=   5, J=   5


     1 CALLS TO GCG PACKAGE FOR TRANSPORT TIME STEP   1 IN FLOW TIME STEP  13 STRESS PERIOD   3
     2 TOTAL ITERATIONS
  MAXIMUM CONCENTRATION CHANGES FOR EACH ITERATION:
  MAX. CHANGE LAYER,ROW,COL MAX. CHANGE LAYER,ROW,COL MAX. CHANGE LAYER,ROW,COL MAX. CHANGE LAYER,ROW,COL MAX. CHANGE LAYER,ROW,COL
 ------------------------------------------------------------------------------------------------------------------------------------
   0.1029E-01 (  1,  5,  5)  0.4657E-09 (  1,  6,  5)


                                          ================================================
                                                         TIME STEP NO.  014
                                          ================================================

 FROM TIME =   114.00     TO    115.00    


                    "THKSAT          " FLOW TERMS FOR TIME STEP 14, STRESS PERIOD  3 READ UNFORMATTED ON UNIT 10
                    --------------------------------------------------------------------------------------------

                    "QXX             " FLOW TERMS FOR TIME STEP 14, STRESS PERIOD  3 READ UNFORMATTED ON UNIT 10
                    --------------------------------------------------------------------------------------------

                    "QYY             " FLOW TERMS FOR TIME STEP 14, STRESS PERIOD  3 READ UNFORMATTED ON UNIT 10
                    --------------------------------------------------------------------------------------------

                    "QZZ             " FLOW TERMS FOR TIME STEP 14, STRESS PERIOD  3 READ UNFORMATTED ON UNIT 10
                    --------------------------------------------------------------------------------------------

                    "STO             " FLOW TERMS FOR TIME STEP 14, STRESS PERIOD  3 READ UNFORMATTED ON UNIT 10
                    --------------------------------------------------------------------------------------------

 MAXIMUM STEPSIZE DURING WHICH ANY PARTICLE CANNOT MOVE MORE THAN ONE CELL
 =  422.3    (WHEN MIN. R.F.=1)  AT K=   2, I=   5, J=   5

 MAXIMUM STEPSIZE WHICH MEETS STABILITY CRITERION OF THE ADVECTION TERM
 (FOR PURE FINITE-DIFFERENCE OPTION, MIXELM=0) 
 =  135.3    (WHEN MIN. R.F.=1)  AT K=   2, I=   5, J=   5

                    "CNH             " FLOW TERMS FOR TIME STEP 14, STRESS PERIOD  3 READ UNFORMATTED ON UNIT 10
                    --------------------------------------------------------------------------------------------

                    "WEL             " FLOW TERMS FOR TIME STEP 14, STRESS PERIOD  3 READ UNFORMATTED ON UNIT 10
                    --------------------------------------------------------------------------------------------

                    "GHB             " FLOW TERMS FOR TIME STEP 14, STRESS PERIOD  3 READ UNFORMATTED ON UNIT 10
                    --------------------------------------------------------------------------------------------


 TOTAL NUMBER OF POINT SOURCES/SINKS PRESENT IN THE FLOW MODEL =    41

 MAXIMUM STEPSIZE WHICH MEETS STABILITY CRITERION OF THE SINK & SOURCE TERM
 =  90.00    (WHEN MIN. R.F.=1)  AT K=   1, I=   5, J=   5

 MAXIMUM STEPSIZE WHICH MEETS STABILITY CRITERION OF THE DISPERSION TERM
 =  267.7    (WHEN MIN. R.F.=1)  AT K=   1, I=   5, J=   5


     1 CALLS TO GCG PACKAGE FOR TRANSPORT TIME STEP   1 IN FLOW TIME STEP  14 STRESS PERIOD   3
     2 TOTAL ITERATIONS
  MAXIMUM CONCENTRATION CHANGES FOR EACH ITERATION:
  MAX. CHANGE LAYER,ROW,COL MAX. CHANGE LAYER,ROW,COL MAX. CHANGE LAYER,ROW,COL MAX. CHANGE LAYER,ROW,COL MAX. CHANGE LAYER,ROW,COL
 ------------------------------------------------------------------------------------------------------------------------------------
   0.1005E-01 (  1,  5,  5)  0.4657E-09 (  1,  6,  5)


                                          ================================================
                                                         TIME STEP NO.  015
                                          ================================================

 FROM TIME =   115.00     TO    116.00    


                    "THKSAT          " FLOW TERMS FOR TIME STEP 15, STRESS PERIOD  3 READ UNFORMATTED ON UNIT 10
                    --------------------------------------------------------------------------------------------

                    "QXX             " FLOW TERMS FOR TIME STEP 15, STRESS PERIOD  3 READ UNFORMATTED ON UNIT 10
                    --------------------------------------------------------------------------------------------

                    "QYY             " FLOW TERMS FOR TIME STEP 15, STRESS PERIOD  3 READ UNFORMATTED ON UNIT 10
                    --------------------------------------------------------------------------------------------

                    "QZZ             " FLOW TERMS FOR TIME STEP 15, STRESS PERIOD  3 READ UNFORMATTED ON UNIT 10
                    --------------------------------------------------------------------------------------------

                    "STO             " FLOW TERMS FOR TIME STEP 15, STRESS PERIOD  3 READ UNFORMATTED ON UNIT 10
                    --------------------------------------------------------------------------------------------

 MAXIMUM STEPSIZE DURING WHICH ANY PARTICLE CANNOT MOVE MORE THAN ONE CELL
 =  422.2    (WHEN MIN. R.F.=1)  AT K=   2, I=   5, J=   5

 MAXIMUM STEPSIZE WHICH MEETS STABILITY CRITERION OF THE ADVECTION TERM
 (FOR PURE FINITE-DIFFERENCE OPTION, MIXELM=0) 
 =  135.3    (WHEN MIN. R.F.=1)  AT K=   2, I=   5, J=   5

                    "CNH             " FLOW TERMS FOR TIME STEP 15, STRESS PERIOD  3 READ UNFORMATTED ON UNIT 10
                    --------------------------------------------------------------------------------------------

                    "WEL             " FLOW TERMS FOR TIME STEP 15, STRESS PERIOD  3 READ UNFORMATTED ON UNIT 10
                    --------------------------------------------------------------------------------------------

                    "GHB             " FLOW TERMS FOR TIME STEP 15, STRESS PERIOD  3 READ UNFORMATTED ON UNIT 10
                    --------------------------------------------------------------------------------------------


 TOTAL NUMBER OF POINT SOURCES/SINKS PRESENT IN THE FLOW MODEL =    41

 MAXIMUM STEPSIZE WHICH MEETS STABILITY CRITERION OF THE SINK & SOURCE TERM
 =  90.00    (WHEN MIN. R.F.=1)  AT K=   1, I=   5, J=   5

 MAXIMUM STEPSIZE WHICH MEETS STABILITY CRITERION OF THE DISPERSION TERM
 =  267.7    (WHEN MIN. R.F.=1)  AT K=   1, I=   5, J=   5


     1 CALLS TO GCG PACKAGE FOR TRANSPORT TIME STEP   1 IN FLOW TIME STEP  15 STRESS PERIOD   3
     2 TOTAL ITERATIONS
  MAXIMUM CONCENTRATION CHANGES FOR EACH ITERATION:
  MAX. CHANGE LAYER,ROW,COL MAX. CHANGE LAYER,ROW,COL MAX. CHANGE LAYER,ROW,COL MAX. CHANGE LAYER,ROW,COL MAX. CHANGE LAYER,ROW,COL
 ------------------------------------------------------------------------------------------------------------------------------------
   0.9824E-02 (  1,  5,  5)  0.4657E-09 (  1,  6,  5)


                                          ================================================
                                                         TIME STEP NO.  016
                                          ================================================

 FROM TIME =   116.00     TO    117.00    


                    "THKSAT          " FLOW TERMS FOR TIME STEP 16, STRESS PERIOD  3 READ UNFORMATTED ON UNIT 10
                    --------------------------------------------------------------------------------------------

                    "QXX             " FLOW TERMS FOR TIME STEP 16, STRESS PERIOD  3 READ UNFORMATTED ON UNIT 10
                    --------------------------------------------------------------------------------------------

                    "QYY             " FLOW TERMS FOR TIME STEP 16, STRESS PERIOD  3 READ UNFORMATTED ON UNIT 10
                    --------------------------------------------------------------------------------------------

                    "QZZ             " FLOW TERMS FOR TIME STEP 16, STRESS PERIOD  3 READ UNFORMATTED ON UNIT 10
                    --------------------------------------------------------------------------------------------

                    "STO             " FLOW TERMS FOR TIME STEP 16, STRESS PERIOD  3 READ UNFORMATTED ON UNIT 10
                    --------------------------------------------------------------------------------------------

 MAXIMUM STEPSIZE DURING WHICH ANY PARTICLE CANNOT MOVE MORE THAN ONE CELL
 =  422.2    (WHEN MIN. R.F.=1)  AT K=   2, I=   5, J=   5

 MAXIMUM STEPSIZE WHICH MEETS STABILITY CRITERION OF THE ADVECTION TERM
 (FOR PURE FINITE-DIFFERENCE OPTION, MIXELM=0) 
 =  135.3    (WHEN MIN. R.F.=1)  AT K=   2, I=   5, J=   5

                    "CNH             " FLOW TERMS FOR TIME STEP 16, STRESS PERIOD  3 READ UNFORMATTED ON UNIT 10
                    --------------------------------------------------------------------------------------------

                    "WEL             " FLOW TERMS FOR TIME STEP 16, STRESS PERIOD  3 READ UNFORMATTED ON UNIT 10
                    --------------------------------------------------------------------------------------------

                    "GHB             " FLOW TERMS FOR TIME STEP 16, STRESS PERIOD  3 READ UNFORMATTED ON UNIT 10
                    --------------------------------------------------------------------------------------------


 TOTAL NUMBER OF POINT SOURCES/SINKS PRESENT IN THE FLOW MODEL =    41

 MAXIMUM STEPSIZE WHICH MEETS STABILITY CRITERION OF THE SINK & SOURCE TERM
 =  90.00    (WHEN MIN. R.F.=1)  AT K=   1, I=   5, J=   5

 MAXIMUM STEPSIZE WHICH MEETS STABILITY CRITERION OF THE DISPERSION TERM
 =  267.6    (WHEN MIN. R.F.=1)  AT K=   1, I=   5, J=   5


     1 CALLS TO GCG PACKAGE FOR TRANSPORT TIME STEP   1 IN FLOW TIME STEP  16 STRESS PERIOD   3
     2 TOTAL ITERATIONS
  MAXIMUM CONCENTRATION CHANGES FOR EACH ITERATION:
  MAX. CHANGE LAYER,ROW,COL MAX. CHANGE LAYER,ROW,COL MAX. CHANGE LAYER,ROW,COL MAX. CHANGE LAYER,ROW,COL MAX. CHANGE LAYER,ROW,COL
 ------------------------------------------------------------------------------------------------------------------------------------
   0.9602E-02 (  1,  5,  5)  0.4657E-09 (  1,  6,  5)


                                          ================================================
                                                         TIME STEP NO.  017
                                          ================================================

 FROM TIME =   117.00     TO    118.00    


                    "THKSAT          " FLOW TERMS FOR TIME STEP 17, STRESS PERIOD  3 READ UNFORMATTED ON UNIT 10
                    --------------------------------------------------------------------------------------------

                    "QXX             " FLOW TERMS FOR TIME STEP 17, STRESS PERIOD  3 READ UNFORMATTED ON UNIT 10
                    --------------------------------------------------------------------------------------------

                    "QYY             " FLOW TERMS FOR TIME STEP 17, STRESS PERIOD  3 READ UNFORMATTED ON UNIT 10
                    --------------------------------------------------------------------------------------------

                    "QZZ             " FLOW TERMS FOR TIME STEP 17, STRESS PERIOD  3 READ UNFORMATTED ON UNIT 10
                    --------------------------------------------------------------------------------------------

                    "STO             " FLOW TERMS FOR TIME STEP 17, STRESS PERIOD  3 READ UNFORMATTED ON UNIT 10
                    --------------------------------------------------------------------------------------------

 MAXIMUM STEPSIZE DURING WHICH ANY PARTICLE CANNOT MOVE MORE THAN ONE CELL
 =  422.2    (WHEN MIN. R.F.=1)  AT K=   2, I=   5, J=   5

 MAXIMUM STEPSIZE WHICH MEETS STABILITY CRITERION OF THE ADVECTION TERM
 (FOR PURE FINITE-DIFFERENCE OPTION, MIXELM=0) 
 =  135.3    (WHEN MIN. R.F.=1)  AT K=   2, I=   5, J=   5

                    "CNH             " FLOW TERMS FOR TIME STEP 17, STRESS PERIOD  3 READ UNFORMATTED ON UNIT 10
                    --------------------------------------------------------------------------------------------

                    "WEL             " FLOW TERMS FOR TIME STEP 17, STRESS PERIOD  3 READ UNFORMATTED ON UNIT 10
                    --------------------------------------------------------------------------------------------

                    "GHB             " FLOW TERMS FOR TIME STEP 17, STRESS PERIOD  3 READ UNFORMATTED ON UNIT 10
                    --------------------------------------------------------------------------------------------


 TOTAL NUMBER OF POINT SOURCES/SINKS PRESENT IN THE FLOW MODEL =    41

 MAXIMUM STEPSIZE WHICH MEETS STABILITY CRITERION OF THE SINK & SOURCE TERM
 =  90.00    (WHEN MIN. R.F.=1)  AT K=   1, I=   5, J=   5

 MAXIMUM STEPSIZE WHICH MEETS STABILITY CRITERION OF THE DISPERSION TERM
 =  267.6    (WHEN MIN. R.F.=1)  AT K=   1, I=   5, J=   5


     1 CALLS TO GCG PACKAGE FOR TRANSPORT TIME STEP   1 IN FLOW TIME STEP  17 STRESS PERIOD   3
     2 TOTAL ITERATIONS
  MAXIMUM CONCENTRATION CHANGES FOR EACH ITERATION:
  MAX. CHANGE LAYER,ROW,COL MAX. CHANGE LAYER,ROW,COL MAX. CHANGE LAYER,ROW,COL MAX. CHANGE LAYER,ROW,COL MAX. CHANGE LAYER,ROW,COL
 ------------------------------------------------------------------------------------------------------------------------------------
   0.9386E-02 (  1,  5,  5)  0.4657E-09 (  1,  6,  5)


                                          ================================================
                                                         TIME STEP NO.  018
                                          ================================================

 FROM TIME =   118.00     TO    119.00    


                    "THKSAT          " FLOW TERMS FOR TIME STEP 18, STRESS PERIOD  3 READ UNFORMATTED ON UNIT 10
                    --------------------------------------------------------------------------------------------

                    "QXX             " FLOW TERMS FOR TIME STEP 18, STRESS PERIOD  3 READ UNFORMATTED ON UNIT 10
                    --------------------------------------------------------------------------------------------

                    "QYY             " FLOW TERMS FOR TIME STEP 18, STRESS PERIOD  3 READ UNFORMATTED ON UNIT 10
                    --------------------------------------------------------------------------------------------

                    "QZZ             " FLOW TERMS FOR TIME STEP 18, STRESS PERIOD  3 READ UNFORMATTED ON UNIT 10
                    --------------------------------------------------------------------------------------------

                    "STO             " FLOW TERMS FOR TIME STEP 18, STRESS PERIOD  3 READ UNFORMATTED ON UNIT 10
                    --------------------------------------------------------------------------------------------

 MAXIMUM STEPSIZE DURING WHICH ANY PARTICLE CANNOT MOVE MORE THAN ONE CELL
 =  422.2    (WHEN MIN. R.F.=1)  AT K=   2, I=   5, J=   5

 MAXIMUM STEPSIZE WHICH MEETS STABILITY CRITERION OF THE ADVECTION TERM
 (FOR PURE FINITE-DIFFERENCE OPTION, MIXELM=0) 
 =  135.3    (WHEN MIN. R.F.=1)  AT K=   2, I=   5, J=   5

                    "CNH             " FLOW TERMS FOR TIME STEP 18, STRESS PERIOD  3 READ UNFORMATTED ON UNIT 10
                    --------------------------------------------------------------------------------------------

                    "WEL             " FLOW TERMS FOR TIME STEP 18, STRESS PERIOD  3 READ UNFORMATTED ON UNIT 10
                    --------------------------------------------------------------------------------------------

                    "GHB             " FLOW TERMS FOR TIME STEP 18, STRESS PERIOD  3 READ UNFORMATTED ON UNIT 10
                    --------------------------------------------------------------------------------------------


 TOTAL NUMBER OF POINT SOURCES/SINKS PRESENT IN THE FLOW MODEL =    41

 MAXIMUM STEPSIZE WHICH MEETS STABILITY CRITERION OF THE SINK & SOURCE TERM
 =  90.00    (WHEN MIN. R.F.=1)  AT K=   1, I=   5, J=   5

 MAXIMUM STEPSIZE WHICH MEETS STABILITY CRITERION OF THE DISPERSION TERM
 =  267.6    (WHEN MIN. R.F.=1)  AT K=   1, I=   5, J=   5


     1 CALLS TO GCG PACKAGE FOR TRANSPORT TIME STEP   1 IN FLOW TIME STEP  18 STRESS PERIOD   3
     2 TOTAL ITERATIONS
  MAXIMUM CONCENTRATION CHANGES FOR EACH ITERATION:
  MAX. CHANGE LAYER,ROW,COL MAX. CHANGE LAYER,ROW,COL MAX. CHANGE LAYER,ROW,COL MAX. CHANGE LAYER,ROW,COL MAX. CHANGE LAYER,ROW,COL
 ------------------------------------------------------------------------------------------------------------------------------------
   0.9178E-02 (  1,  5,  5)  0.4657E-09 (  1,  6,  5)


                                          ================================================
                                                         TIME STEP NO.  019
                                          ================================================

 FROM TIME =   119.00     TO    120.00    


                    "THKSAT          " FLOW TERMS FOR TIME STEP 19, STRESS PERIOD  3 READ UNFORMATTED ON UNIT 10
                    --------------------------------------------------------------------------------------------

                    "QXX             " FLOW TERMS FOR TIME STEP 19, STRESS PERIOD  3 READ UNFORMATTED ON UNIT 10
                    --------------------------------------------------------------------------------------------

                    "QYY             " FLOW TERMS FOR TIME STEP 19, STRESS PERIOD  3 READ UNFORMATTED ON UNIT 10
                    --------------------------------------------------------------------------------------------

                    "QZZ             " FLOW TERMS FOR TIME STEP 19, STRESS PERIOD  3 READ UNFORMATTED ON UNIT 10
                    --------------------------------------------------------------------------------------------

                    "STO             " FLOW TERMS FOR TIME STEP 19, STRESS PERIOD  3 READ UNFORMATTED ON UNIT 10
                    --------------------------------------------------------------------------------------------

 MAXIMUM STEPSIZE DURING WHICH ANY PARTICLE CANNOT MOVE MORE THAN ONE CELL
 =  422.2    (WHEN MIN. R.F.=1)  AT K=   2, I=   5, J=   5

 MAXIMUM STEPSIZE WHICH MEETS STABILITY CRITERION OF THE ADVECTION TERM
 (FOR PURE FINITE-DIFFERENCE OPTION, MIXELM=0) 
 =  135.3    (WHEN MIN. R.F.=1)  AT K=   2, I=   5, J=   5

                    "CNH             " FLOW TERMS FOR TIME STEP 19, STRESS PERIOD  3 READ UNFORMATTED ON UNIT 10
                    --------------------------------------------------------------------------------------------

                    "WEL             " FLOW TERMS FOR TIME STEP 19, STRESS PERIOD  3 READ UNFORMATTED ON UNIT 10
                    --------------------------------------------------------------------------------------------

                    "GHB             " FLOW TERMS FOR TIME STEP 19, STRESS PERIOD  3 READ UNFORMATTED ON UNIT 10
                    --------------------------------------------------------------------------------------------


 TOTAL NUMBER OF POINT SOURCES/SINKS PRESENT IN THE FLOW MODEL =    41

 MAXIMUM STEPSIZE WHICH MEETS STABILITY CRITERION OF THE SINK & SOURCE TERM
 =  90.00    (WHEN MIN. R.F.=1)  AT K=   1, I=   5, J=   5

 MAXIMUM STEPSIZE WHICH MEETS STABILITY CRITERION OF THE DISPERSION TERM
 =  267.6    (WHEN MIN. R.F.=1)  AT K=   1, I=   5, J=   5


     1 CALLS TO GCG PACKAGE FOR TRANSPORT TIME STEP   1 IN FLOW TIME STEP  19 STRESS PERIOD   3
     2 TOTAL ITERATIONS
  MAXIMUM CONCENTRATION CHANGES FOR EACH ITERATION:
  MAX. CHANGE LAYER,ROW,COL MAX. CHANGE LAYER,ROW,COL MAX. CHANGE LAYER,ROW,COL MAX. CHANGE LAYER,ROW,COL MAX. CHANGE LAYER,ROW,COL
 ------------------------------------------------------------------------------------------------------------------------------------
   0.8976E-02 (  1,  5,  5)  0.4657E-09 (  1,  6,  5)


                                          ================================================
                                                         TIME STEP NO.  020
                                          ================================================

 FROM TIME =   120.00     TO    121.00    


                    "THKSAT          " FLOW TERMS FOR TIME STEP 20, STRESS PERIOD  3 READ UNFORMATTED ON UNIT 10
                    --------------------------------------------------------------------------------------------

                    "QXX             " FLOW TERMS FOR TIME STEP 20, STRESS PERIOD  3 READ UNFORMATTED ON UNIT 10
                    --------------------------------------------------------------------------------------------

                    "QYY             " FLOW TERMS FOR TIME STEP 20, STRESS PERIOD  3 READ UNFORMATTED ON UNIT 10
                    --------------------------------------------------------------------------------------------

                    "QZZ             " FLOW TERMS FOR TIME STEP 20, STRESS PERIOD  3 READ UNFORMATTED ON UNIT 10
                    --------------------------------------------------------------------------------------------

                    "STO             " FLOW TERMS FOR TIME STEP 20, STRESS PERIOD  3 READ UNFORMATTED ON UNIT 10
                    --------------------------------------------------------------------------------------------

 MAXIMUM STEPSIZE DURING WHICH ANY PARTICLE CANNOT MOVE MORE THAN ONE CELL
 =  422.2    (WHEN MIN. R.F.=1)  AT K=   2, I=   5, J=   5

 MAXIMUM STEPSIZE WHICH MEETS STABILITY CRITERION OF THE ADVECTION TERM
 (FOR PURE FINITE-DIFFERENCE OPTION, MIXELM=0) 
 =  135.3    (WHEN MIN. R.F.=1)  AT K=   2, I=   5, J=   5

                    "CNH             " FLOW TERMS FOR TIME STEP 20, STRESS PERIOD  3 READ UNFORMATTED ON UNIT 10
                    --------------------------------------------------------------------------------------------

                    "WEL             " FLOW TERMS FOR TIME STEP 20, STRESS PERIOD  3 READ UNFORMATTED ON UNIT 10
                    --------------------------------------------------------------------------------------------

                    "GHB             " FLOW TERMS FOR TIME STEP 20, STRESS PERIOD  3 READ UNFORMATTED ON UNIT 10
                    --------------------------------------------------------------------------------------------


 TOTAL NUMBER OF POINT SOURCES/SINKS PRESENT IN THE FLOW MODEL =    41

 MAXIMUM STEPSIZE WHICH MEETS STABILITY CRITERION OF THE SINK & SOURCE TERM
 =  90.00    (WHEN MIN. R.F.=1)  AT K=   1, I=   5, J=   5

 MAXIMUM STEPSIZE WHICH MEETS STABILITY CRITERION OF THE DISPERSION TERM
 =  267.6    (WHEN MIN. R.F.=1)  AT K=   1, I=   5, J=   5


     1 CALLS TO GCG PACKAGE FOR TRANSPORT TIME STEP   1 IN FLOW TIME STEP  20 STRESS PERIOD   3
     2 TOTAL ITERATIONS
  MAXIMUM CONCENTRATION CHANGES FOR EACH ITERATION:
  MAX. CHANGE LAYER,ROW,COL MAX. CHANGE LAYER,ROW,COL MAX. CHANGE LAYER,ROW,COL MAX. CHANGE LAYER,ROW,COL MAX. CHANGE LAYER,ROW,COL
 ------------------------------------------------------------------------------------------------------------------------------------
   0.8780E-02 (  1,  5,  5)  0.4657E-09 (  1,  6,  5)


                                          ================================================
                                                         TIME STEP NO.  021
                                          ================================================

 FROM TIME =   121.00     TO    122.00    


                    "THKSAT          " FLOW TERMS FOR TIME STEP 21, STRESS PERIOD  3 READ UNFORMATTED ON UNIT 10
                    --------------------------------------------------------------------------------------------

                    "QXX             " FLOW TERMS FOR TIME STEP 21, STRESS PERIOD  3 READ UNFORMATTED ON UNIT 10
                    --------------------------------------------------------------------------------------------

                    "QYY             " FLOW TERMS FOR TIME STEP 21, STRESS PERIOD  3 READ UNFORMATTED ON UNIT 10
                    --------------------------------------------------------------------------------------------

                    "QZZ             " FLOW TERMS FOR TIME STEP 21, STRESS PERIOD  3 READ UNFORMATTED ON UNIT 10
                    --------------------------------------------------------------------------------------------

                    "STO             " FLOW TERMS FOR TIME STEP 21, STRESS PERIOD  3 READ UNFORMATTED ON UNIT 10
                    --------------------------------------------------------------------------------------------

 MAXIMUM STEPSIZE DURING WHICH ANY PARTICLE CANNOT MOVE MORE THAN ONE CELL
 =  422.2    (WHEN MIN. R.F.=1)  AT K=   2, I=   5, J=   5

 MAXIMUM STEPSIZE WHICH MEETS STABILITY CRITERION OF THE ADVECTION TERM
 (FOR PURE FINITE-DIFFERENCE OPTION, MIXELM=0) 
 =  135.3    (WHEN MIN. R.F.=1)  AT K=   2, I=   5, J=   5

                    "CNH             " FLOW TERMS FOR TIME STEP 21, STRESS PERIOD  3 READ UNFORMATTED ON UNIT 10
                    --------------------------------------------------------------------------------------------

                    "WEL             " FLOW TERMS FOR TIME STEP 21, STRESS PERIOD  3 READ UNFORMATTED ON UNIT 10
                    --------------------------------------------------------------------------------------------

                    "GHB             " FLOW TERMS FOR TIME STEP 21, STRESS PERIOD  3 READ UNFORMATTED ON UNIT 10
                    --------------------------------------------------------------------------------------------


 TOTAL NUMBER OF POINT SOURCES/SINKS PRESENT IN THE FLOW MODEL =    41

 MAXIMUM STEPSIZE WHICH MEETS STABILITY CRITERION OF THE SINK & SOURCE TERM
 =  90.00    (WHEN MIN. R.F.=1)  AT K=   1, I=   5, J=   5

 MAXIMUM STEPSIZE WHICH MEETS STABILITY CRITERION OF THE DISPERSION TERM
 =  267.6    (WHEN MIN. R.F.=1)  AT K=   1, I=   5, J=   5


     1 CALLS TO GCG PACKAGE FOR TRANSPORT TIME STEP   1 IN FLOW TIME STEP  21 STRESS PERIOD   3
     2 TOTAL ITERATIONS
  MAXIMUM CONCENTRATION CHANGES FOR EACH ITERATION:
  MAX. CHANGE LAYER,ROW,COL MAX. CHANGE LAYER,ROW,COL MAX. CHANGE LAYER,ROW,COL MAX. CHANGE LAYER,ROW,COL MAX. CHANGE LAYER,ROW,COL
 ------------------------------------------------------------------------------------------------------------------------------------
   0.8591E-02 (  1,  5,  5)  0.4657E-09 (  1,  6,  5)


                                          ================================================
                                                         TIME STEP NO.  022
                                          ================================================

 FROM TIME =   122.00     TO    123.00    


                    "THKSAT          " FLOW TERMS FOR TIME STEP 22, STRESS PERIOD  3 READ UNFORMATTED ON UNIT 10
                    --------------------------------------------------------------------------------------------

                    "QXX             " FLOW TERMS FOR TIME STEP 22, STRESS PERIOD  3 READ UNFORMATTED ON UNIT 10
                    --------------------------------------------------------------------------------------------

                    "QYY             " FLOW TERMS FOR TIME STEP 22, STRESS PERIOD  3 READ UNFORMATTED ON UNIT 10
                    --------------------------------------------------------------------------------------------

                    "QZZ             " FLOW TERMS FOR TIME STEP 22, STRESS PERIOD  3 READ UNFORMATTED ON UNIT 10
                    --------------------------------------------------------------------------------------------

                    "STO             " FLOW TERMS FOR TIME STEP 22, STRESS PERIOD  3 READ UNFORMATTED ON UNIT 10
                    --------------------------------------------------------------------------------------------

 MAXIMUM STEPSIZE DURING WHICH ANY PARTICLE CANNOT MOVE MORE THAN ONE CELL
 =  422.2    (WHEN MIN. R.F.=1)  AT K=   2, I=   5, J=   5

 MAXIMUM STEPSIZE WHICH MEETS STABILITY CRITERION OF THE ADVECTION TERM
 (FOR PURE FINITE-DIFFERENCE OPTION, MIXELM=0) 
 =  135.3    (WHEN MIN. R.F.=1)  AT K=   2, I=   5, J=   5

                    "CNH             " FLOW TERMS FOR TIME STEP 22, STRESS PERIOD  3 READ UNFORMATTED ON UNIT 10
                    --------------------------------------------------------------------------------------------

                    "WEL             " FLOW TERMS FOR TIME STEP 22, STRESS PERIOD  3 READ UNFORMATTED ON UNIT 10
                    --------------------------------------------------------------------------------------------

                    "GHB             " FLOW TERMS FOR TIME STEP 22, STRESS PERIOD  3 READ UNFORMATTED ON UNIT 10
                    --------------------------------------------------------------------------------------------


 TOTAL NUMBER OF POINT SOURCES/SINKS PRESENT IN THE FLOW MODEL =    41

 MAXIMUM STEPSIZE WHICH MEETS STABILITY CRITERION OF THE SINK & SOURCE TERM
 =  90.00    (WHEN MIN. R.F.=1)  AT K=   1, I=   5, J=   5

 MAXIMUM STEPSIZE WHICH MEETS STABILITY CRITERION OF THE DISPERSION TERM
 =  267.6    (WHEN MIN. R.F.=1)  AT K=   1, I=   5, J=   5


     1 CALLS TO GCG PACKAGE FOR TRANSPORT TIME STEP   1 IN FLOW TIME STEP  22 STRESS PERIOD   3
     2 TOTAL ITERATIONS
  MAXIMUM CONCENTRATION CHANGES FOR EACH ITERATION:
  MAX. CHANGE LAYER,ROW,COL MAX. CHANGE LAYER,ROW,COL MAX. CHANGE LAYER,ROW,COL MAX. CHANGE LAYER,ROW,COL MAX. CHANGE LAYER,ROW,COL
 ------------------------------------------------------------------------------------------------------------------------------------
   0.8407E-02 (  1,  5,  5)  0.4657E-09 (  1,  6,  5)


                                          ================================================
                                                         TIME STEP NO.  023
                                          ================================================

 FROM TIME =   123.00     TO    124.00    


                    "THKSAT          " FLOW TERMS FOR TIME STEP 23, STRESS PERIOD  3 READ UNFORMATTED ON UNIT 10
                    --------------------------------------------------------------------------------------------

                    "QXX             " FLOW TERMS FOR TIME STEP 23, STRESS PERIOD  3 READ UNFORMATTED ON UNIT 10
                    --------------------------------------------------------------------------------------------

                    "QYY             " FLOW TERMS FOR TIME STEP 23, STRESS PERIOD  3 READ UNFORMATTED ON UNIT 10
                    --------------------------------------------------------------------------------------------

                    "QZZ             " FLOW TERMS FOR TIME STEP 23, STRESS PERIOD  3 READ UNFORMATTED ON UNIT 10
                    --------------------------------------------------------------------------------------------

                    "STO             " FLOW TERMS FOR TIME STEP 23, STRESS PERIOD  3 READ UNFORMATTED ON UNIT 10
                    --------------------------------------------------------------------------------------------

 MAXIMUM STEPSIZE DURING WHICH ANY PARTICLE CANNOT MOVE MORE THAN ONE CELL
 =  422.2    (WHEN MIN. R.F.=1)  AT K=   2, I=   5, J=   5

 MAXIMUM STEPSIZE WHICH MEETS STABILITY CRITERION OF THE ADVECTION TERM
 (FOR PURE FINITE-DIFFERENCE OPTION, MIXELM=0) 
 =  135.3    (WHEN MIN. R.F.=1)  AT K=   2, I=   5, J=   5

                    "CNH             " FLOW TERMS FOR TIME STEP 23, STRESS PERIOD  3 READ UNFORMATTED ON UNIT 10
                    --------------------------------------------------------------------------------------------

                    "WEL             " FLOW TERMS FOR TIME STEP 23, STRESS PERIOD  3 READ UNFORMATTED ON UNIT 10
                    --------------------------------------------------------------------------------------------

                    "GHB             " FLOW TERMS FOR TIME STEP 23, STRESS PERIOD  3 READ UNFORMATTED ON UNIT 10
                    --------------------------------------------------------------------------------------------


 TOTAL NUMBER OF POINT SOURCES/SINKS PRESENT IN THE FLOW MODEL =    41

 MAXIMUM STEPSIZE WHICH MEETS STABILITY CRITERION OF THE SINK & SOURCE TERM
 =  90.00    (WHEN MIN. R.F.=1)  AT K=   1, I=   5, J=   5

 MAXIMUM STEPSIZE WHICH MEETS STABILITY CRITERION OF THE DISPERSION TERM
 =  267.6    (WHEN MIN. R.F.=1)  AT K=   1, I=   5, J=   5


     1 CALLS TO GCG PACKAGE FOR TRANSPORT TIME STEP   1 IN FLOW TIME STEP  23 STRESS PERIOD   3
     2 TOTAL ITERATIONS
  MAXIMUM CONCENTRATION CHANGES FOR EACH ITERATION:
  MAX. CHANGE LAYER,ROW,COL MAX. CHANGE LAYER,ROW,COL MAX. CHANGE LAYER,ROW,COL MAX. CHANGE LAYER,ROW,COL MAX. CHANGE LAYER,ROW,COL
 ------------------------------------------------------------------------------------------------------------------------------------
   0.8228E-02 (  1,  5,  5)  0.4657E-09 (  1,  6,  5)


                                          ================================================
                                                         TIME STEP NO.  024
                                          ================================================

 FROM TIME =   124.00     TO    125.00    


                    "THKSAT          " FLOW TERMS FOR TIME STEP 24, STRESS PERIOD  3 READ UNFORMATTED ON UNIT 10
                    --------------------------------------------------------------------------------------------

                    "QXX             " FLOW TERMS FOR TIME STEP 24, STRESS PERIOD  3 READ UNFORMATTED ON UNIT 10
                    --------------------------------------------------------------------------------------------

                    "QYY             " FLOW TERMS FOR TIME STEP 24, STRESS PERIOD  3 READ UNFORMATTED ON UNIT 10
                    --------------------------------------------------------------------------------------------

                    "QZZ             " FLOW TERMS FOR TIME STEP 24, STRESS PERIOD  3 READ UNFORMATTED ON UNIT 10
                    --------------------------------------------------------------------------------------------

                    "STO             " FLOW TERMS FOR TIME STEP 24, STRESS PERIOD  3 READ UNFORMATTED ON UNIT 10
                    --------------------------------------------------------------------------------------------

 MAXIMUM STEPSIZE DURING WHICH ANY PARTICLE CANNOT MOVE MORE THAN ONE CELL
 =  422.2    (WHEN MIN. R.F.=1)  AT K=   2, I=   5, J=   5

 MAXIMUM STEPSIZE WHICH MEETS STABILITY CRITERION OF THE ADVECTION TERM
 (FOR PURE FINITE-DIFFERENCE OPTION, MIXELM=0) 
 =  135.3    (WHEN MIN. R.F.=1)  AT K=   2, I=   5, J=   5

                    "CNH             " FLOW TERMS FOR TIME STEP 24, STRESS PERIOD  3 READ UNFORMATTED ON UNIT 10
                    --------------------------------------------------------------------------------------------

                    "WEL             " FLOW TERMS FOR TIME STEP 24, STRESS PERIOD  3 READ UNFORMATTED ON UNIT 10
                    --------------------------------------------------------------------------------------------

                    "GHB             " FLOW TERMS FOR TIME STEP 24, STRESS PERIOD  3 READ UNFORMATTED ON UNIT 10
                    --------------------------------------------------------------------------------------------


 TOTAL NUMBER OF POINT SOURCES/SINKS PRESENT IN THE FLOW MODEL =    41

 MAXIMUM STEPSIZE WHICH MEETS STABILITY CRITERION OF THE SINK & SOURCE TERM
 =  90.00    (WHEN MIN. R.F.=1)  AT K=   1, I=   5, J=   5

 MAXIMUM STEPSIZE WHICH MEETS STABILITY CRITERION OF THE DISPERSION TERM
 =  267.6    (WHEN MIN. R.F.=1)  AT K=   1, I=   5, J=   5


     1 CALLS TO GCG PACKAGE FOR TRANSPORT TIME STEP   1 IN FLOW TIME STEP  24 STRESS PERIOD   3
     2 TOTAL ITERATIONS
  MAXIMUM CONCENTRATION CHANGES FOR EACH ITERATION:
  MAX. CHANGE LAYER,ROW,COL MAX. CHANGE LAYER,ROW,COL MAX. CHANGE LAYER,ROW,COL MAX. CHANGE LAYER,ROW,COL MAX. CHANGE LAYER,ROW,COL
 ------------------------------------------------------------------------------------------------------------------------------------
   0.8055E-02 (  1,  5,  5)  0.4657E-09 (  1,  6,  5)


                                          ================================================
                                                         TIME STEP NO.  025
                                          ================================================

 FROM TIME =   125.00     TO    126.00    


                    "THKSAT          " FLOW TERMS FOR TIME STEP 25, STRESS PERIOD  3 READ UNFORMATTED ON UNIT 10
                    --------------------------------------------------------------------------------------------

                    "QXX             " FLOW TERMS FOR TIME STEP 25, STRESS PERIOD  3 READ UNFORMATTED ON UNIT 10
                    --------------------------------------------------------------------------------------------

                    "QYY             " FLOW TERMS FOR TIME STEP 25, STRESS PERIOD  3 READ UNFORMATTED ON UNIT 10
                    --------------------------------------------------------------------------------------------

                    "QZZ             " FLOW TERMS FOR TIME STEP 25, STRESS PERIOD  3 READ UNFORMATTED ON UNIT 10
                    --------------------------------------------------------------------------------------------

                    "STO             " FLOW TERMS FOR TIME STEP 25, STRESS PERIOD  3 READ UNFORMATTED ON UNIT 10
                    --------------------------------------------------------------------------------------------

 MAXIMUM STEPSIZE DURING WHICH ANY PARTICLE CANNOT MOVE MORE THAN ONE CELL
 =  422.2    (WHEN MIN. R.F.=1)  AT K=   2, I=   5, J=   5

 MAXIMUM STEPSIZE WHICH MEETS STABILITY CRITERION OF THE ADVECTION TERM
 (FOR PURE FINITE-DIFFERENCE OPTION, MIXELM=0) 
 =  135.3    (WHEN MIN. R.F.=1)  AT K=   2, I=   5, J=   5

                    "CNH             " FLOW TERMS FOR TIME STEP 25, STRESS PERIOD  3 READ UNFORMATTED ON UNIT 10
                    --------------------------------------------------------------------------------------------

                    "WEL             " FLOW TERMS FOR TIME STEP 25, STRESS PERIOD  3 READ UNFORMATTED ON UNIT 10
                    --------------------------------------------------------------------------------------------

                    "GHB             " FLOW TERMS FOR TIME STEP 25, STRESS PERIOD  3 READ UNFORMATTED ON UNIT 10
                    --------------------------------------------------------------------------------------------


 TOTAL NUMBER OF POINT SOURCES/SINKS PRESENT IN THE FLOW MODEL =    41

 MAXIMUM STEPSIZE WHICH MEETS STABILITY CRITERION OF THE SINK & SOURCE TERM
 =  90.00    (WHEN MIN. R.F.=1)  AT K=   1, I=   5, J=   5

 MAXIMUM STEPSIZE WHICH MEETS STABILITY CRITERION OF THE DISPERSION TERM
 =  267.6    (WHEN MIN. R.F.=1)  AT K=   1, I=   5, J=   5


     1 CALLS TO GCG PACKAGE FOR TRANSPORT TIME STEP   1 IN FLOW TIME STEP  25 STRESS PERIOD   3
     2 TOTAL ITERATIONS
  MAXIMUM CONCENTRATION CHANGES FOR EACH ITERATION:
  MAX. CHANGE LAYER,ROW,COL MAX. CHANGE LAYER,ROW,COL MAX. CHANGE LAYER,ROW,COL MAX. CHANGE LAYER,ROW,COL MAX. CHANGE LAYER,ROW,COL
 ------------------------------------------------------------------------------------------------------------------------------------
   0.7916E-02 (  1,  5,  5)  0.4657E-09 (  1,  6,  5)


                                          ================================================
                                                         TIME STEP NO.  026
                                          ================================================

 FROM TIME =   126.00     TO    127.00    


                    "THKSAT          " FLOW TERMS FOR TIME STEP 26, STRESS PERIOD  3 READ UNFORMATTED ON UNIT 10
                    --------------------------------------------------------------------------------------------

                    "QXX             " FLOW TERMS FOR TIME STEP 26, STRESS PERIOD  3 READ UNFORMATTED ON UNIT 10
                    --------------------------------------------------------------------------------------------

                    "QYY             " FLOW TERMS FOR TIME STEP 26, STRESS PERIOD  3 READ UNFORMATTED ON UNIT 10
                    --------------------------------------------------------------------------------------------

                    "QZZ             " FLOW TERMS FOR TIME STEP 26, STRESS PERIOD  3 READ UNFORMATTED ON UNIT 10
                    --------------------------------------------------------------------------------------------

                    "STO             " FLOW TERMS FOR TIME STEP 26, STRESS PERIOD  3 READ UNFORMATTED ON UNIT 10
                    --------------------------------------------------------------------------------------------

 MAXIMUM STEPSIZE DURING WHICH ANY PARTICLE CANNOT MOVE MORE THAN ONE CELL
 =  422.2    (WHEN MIN. R.F.=1)  AT K=   2, I=   5, J=   5

 MAXIMUM STEPSIZE WHICH MEETS STABILITY CRITERION OF THE ADVECTION TERM
 (FOR PURE FINITE-DIFFERENCE OPTION, MIXELM=0) 
 =  135.3    (WHEN MIN. R.F.=1)  AT K=   2, I=   5, J=   5

                    "CNH             " FLOW TERMS FOR TIME STEP 26, STRESS PERIOD  3 READ UNFORMATTED ON UNIT 10
                    --------------------------------------------------------------------------------------------

                    "WEL             " FLOW TERMS FOR TIME STEP 26, STRESS PERIOD  3 READ UNFORMATTED ON UNIT 10
                    --------------------------------------------------------------------------------------------

                    "GHB             " FLOW TERMS FOR TIME STEP 26, STRESS PERIOD  3 READ UNFORMATTED ON UNIT 10
                    --------------------------------------------------------------------------------------------


 TOTAL NUMBER OF POINT SOURCES/SINKS PRESENT IN THE FLOW MODEL =    41

 MAXIMUM STEPSIZE WHICH MEETS STABILITY CRITERION OF THE SINK & SOURCE TERM
 =  90.00    (WHEN MIN. R.F.=1)  AT K=   1, I=   5, J=   5

 MAXIMUM STEPSIZE WHICH MEETS STABILITY CRITERION OF THE DISPERSION TERM
 =  267.6    (WHEN MIN. R.F.=1)  AT K=   1, I=   5, J=   5


     1 CALLS TO GCG PACKAGE FOR TRANSPORT TIME STEP   1 IN FLOW TIME STEP  26 STRESS PERIOD   3
     2 TOTAL ITERATIONS
  MAXIMUM CONCENTRATION CHANGES FOR EACH ITERATION:
  MAX. CHANGE LAYER,ROW,COL MAX. CHANGE LAYER,ROW,COL MAX. CHANGE LAYER,ROW,COL MAX. CHANGE LAYER,ROW,COL MAX. CHANGE LAYER,ROW,COL
 ------------------------------------------------------------------------------------------------------------------------------------
   0.7752E-02 (  1,  5,  5)  0.5821E-10 (  1,  4,  6)


                                          ================================================
                                                         TIME STEP NO.  027
                                          ================================================

 FROM TIME =   127.00     TO    128.00    


                    "THKSAT          " FLOW TERMS FOR TIME STEP 27, STRESS PERIOD  3 READ UNFORMATTED ON UNIT 10
                    --------------------------------------------------------------------------------------------

                    "QXX             " FLOW TERMS FOR TIME STEP 27, STRESS PERIOD  3 READ UNFORMATTED ON UNIT 10
                    --------------------------------------------------------------------------------------------

                    "QYY             " FLOW TERMS FOR TIME STEP 27, STRESS PERIOD  3 READ UNFORMATTED ON UNIT 10
                    --------------------------------------------------------------------------------------------

                    "QZZ             " FLOW TERMS FOR TIME STEP 27, STRESS PERIOD  3 READ UNFORMATTED ON UNIT 10
                    --------------------------------------------------------------------------------------------

                    "STO             " FLOW TERMS FOR TIME STEP 27, STRESS PERIOD  3 READ UNFORMATTED ON UNIT 10
                    --------------------------------------------------------------------------------------------

 MAXIMUM STEPSIZE DURING WHICH ANY PARTICLE CANNOT MOVE MORE THAN ONE CELL
 =  422.2    (WHEN MIN. R.F.=1)  AT K=   2, I=   5, J=   5

 MAXIMUM STEPSIZE WHICH MEETS STABILITY CRITERION OF THE ADVECTION TERM
 (FOR PURE FINITE-DIFFERENCE OPTION, MIXELM=0) 
 =  135.3    (WHEN MIN. R.F.=1)  AT K=   2, I=   5, J=   5

                    "CNH             " FLOW TERMS FOR TIME STEP 27, STRESS PERIOD  3 READ UNFORMATTED ON UNIT 10
                    --------------------------------------------------------------------------------------------

                    "WEL             " FLOW TERMS FOR TIME STEP 27, STRESS PERIOD  3 READ UNFORMATTED ON UNIT 10
                    --------------------------------------------------------------------------------------------

                    "GHB             " FLOW TERMS FOR TIME STEP 27, STRESS PERIOD  3 READ UNFORMATTED ON UNIT 10
                    --------------------------------------------------------------------------------------------


 TOTAL NUMBER OF POINT SOURCES/SINKS PRESENT IN THE FLOW MODEL =    41

 MAXIMUM STEPSIZE WHICH MEETS STABILITY CRITERION OF THE SINK & SOURCE TERM
 =  90.00    (WHEN MIN. R.F.=1)  AT K=   1, I=   5, J=   5

 MAXIMUM STEPSIZE WHICH MEETS STABILITY CRITERION OF THE DISPERSION TERM
 =  267.6    (WHEN MIN. R.F.=1)  AT K=   1, I=   5, J=   5


     1 CALLS TO GCG PACKAGE FOR TRANSPORT TIME STEP   1 IN FLOW TIME STEP  27 STRESS PERIOD   3
     2 TOTAL ITERATIONS
  MAXIMUM CONCENTRATION CHANGES FOR EACH ITERATION:
  MAX. CHANGE LAYER,ROW,COL MAX. CHANGE LAYER,ROW,COL MAX. CHANGE LAYER,ROW,COL MAX. CHANGE LAYER,ROW,COL MAX. CHANGE LAYER,ROW,COL
 ------------------------------------------------------------------------------------------------------------------------------------
   0.7593E-02 (  1,  5,  5)  0.5821E-10 (  1,  4,  6)


                                          ================================================
                                                         TIME STEP NO.  028
                                          ================================================

 FROM TIME =   128.00     TO    129.00    


                    "THKSAT          " FLOW TERMS FOR TIME STEP 28, STRESS PERIOD  3 READ UNFORMATTED ON UNIT 10
                    --------------------------------------------------------------------------------------------

                    "QXX             " FLOW TERMS FOR TIME STEP 28, STRESS PERIOD  3 READ UNFORMATTED ON UNIT 10
                    --------------------------------------------------------------------------------------------

                    "QYY             " FLOW TERMS FOR TIME STEP 28, STRESS PERIOD  3 READ UNFORMATTED ON UNIT 10
                    --------------------------------------------------------------------------------------------

                    "QZZ             " FLOW TERMS FOR TIME STEP 28, STRESS PERIOD  3 READ UNFORMATTED ON UNIT 10
                    --------------------------------------------------------------------------------------------

                    "STO             " FLOW TERMS FOR TIME STEP 28, STRESS PERIOD  3 READ UNFORMATTED ON UNIT 10
                    --------------------------------------------------------------------------------------------

 MAXIMUM STEPSIZE DURING WHICH ANY PARTICLE CANNOT MOVE MORE THAN ONE CELL
 =  422.2    (WHEN MIN. R.F.=1)  AT K=   2, I=   5, J=   5

 MAXIMUM STEPSIZE WHICH MEETS STABILITY CRITERION OF THE ADVECTION TERM
 (FOR PURE FINITE-DIFFERENCE OPTION, MIXELM=0) 
 =  135.3    (WHEN MIN. R.F.=1)  AT K=   2, I=   5, J=   5

                    "CNH             " FLOW TERMS FOR TIME STEP 28, STRESS PERIOD  3 READ UNFORMATTED ON UNIT 10
                    --------------------------------------------------------------------------------------------

                    "WEL             " FLOW TERMS FOR TIME STEP 28, STRESS PERIOD  3 READ UNFORMATTED ON UNIT 10
                    --------------------------------------------------------------------------------------------

                    "GHB             " FLOW TERMS FOR TIME STEP 28, STRESS PERIOD  3 READ UNFORMATTED ON UNIT 10
                    --------------------------------------------------------------------------------------------


 TOTAL NUMBER OF POINT SOURCES/SINKS PRESENT IN THE FLOW MODEL =    41

 MAXIMUM STEPSIZE WHICH MEETS STABILITY CRITERION OF THE SINK & SOURCE TERM
 =  90.00    (WHEN MIN. R.F.=1)  AT K=   1, I=   5, J=   5

 MAXIMUM STEPSIZE WHICH MEETS STABILITY CRITERION OF THE DISPERSION TERM
 =  267.6    (WHEN MIN. R.F.=1)  AT K=   1, I=   5, J=   5


     1 CALLS TO GCG PACKAGE FOR TRANSPORT TIME STEP   1 IN FLOW TIME STEP  28 STRESS PERIOD   3
     2 TOTAL ITERATIONS
  MAXIMUM CONCENTRATION CHANGES FOR EACH ITERATION:
  MAX. CHANGE LAYER,ROW,COL MAX. CHANGE LAYER,ROW,COL MAX. CHANGE LAYER,ROW,COL MAX. CHANGE LAYER,ROW,COL MAX. CHANGE LAYER,ROW,COL
 ------------------------------------------------------------------------------------------------------------------------------------
   0.7438E-02 (  1,  5,  5)  0.5821E-10 (  1,  4,  6)


                                          ================================================
                                                         TIME STEP NO.  029
                                          ================================================

 FROM TIME =   129.00     TO    130.00    


                    "THKSAT          " FLOW TERMS FOR TIME STEP 29, STRESS PERIOD  3 READ UNFORMATTED ON UNIT 10
                    --------------------------------------------------------------------------------------------

                    "QXX             " FLOW TERMS FOR TIME STEP 29, STRESS PERIOD  3 READ UNFORMATTED ON UNIT 10
                    --------------------------------------------------------------------------------------------

                    "QYY             " FLOW TERMS FOR TIME STEP 29, STRESS PERIOD  3 READ UNFORMATTED ON UNIT 10
                    --------------------------------------------------------------------------------------------

                    "QZZ             " FLOW TERMS FOR TIME STEP 29, STRESS PERIOD  3 READ UNFORMATTED ON UNIT 10
                    --------------------------------------------------------------------------------------------

                    "STO             " FLOW TERMS FOR TIME STEP 29, STRESS PERIOD  3 READ UNFORMATTED ON UNIT 10
                    --------------------------------------------------------------------------------------------

 MAXIMUM STEPSIZE DURING WHICH ANY PARTICLE CANNOT MOVE MORE THAN ONE CELL
 =  422.2    (WHEN MIN. R.F.=1)  AT K=   2, I=   5, J=   5

 MAXIMUM STEPSIZE WHICH MEETS STABILITY CRITERION OF THE ADVECTION TERM
 (FOR PURE FINITE-DIFFERENCE OPTION, MIXELM=0) 
 =  135.3    (WHEN MIN. R.F.=1)  AT K=   2, I=   5, J=   5

                    "CNH             " FLOW TERMS FOR TIME STEP 29, STRESS PERIOD  3 READ UNFORMATTED ON UNIT 10
                    --------------------------------------------------------------------------------------------

                    "WEL             " FLOW TERMS FOR TIME STEP 29, STRESS PERIOD  3 READ UNFORMATTED ON UNIT 10
                    --------------------------------------------------------------------------------------------

                    "GHB             " FLOW TERMS FOR TIME STEP 29, STRESS PERIOD  3 READ UNFORMATTED ON UNIT 10
                    --------------------------------------------------------------------------------------------


 TOTAL NUMBER OF POINT SOURCES/SINKS PRESENT IN THE FLOW MODEL =    41

 MAXIMUM STEPSIZE WHICH MEETS STABILITY CRITERION OF THE SINK & SOURCE TERM
 =  90.00    (WHEN MIN. R.F.=1)  AT K=   1, I=   5, J=   5

 MAXIMUM STEPSIZE WHICH MEETS STABILITY CRITERION OF THE DISPERSION TERM
 =  267.6    (WHEN MIN. R.F.=1)  AT K=   1, I=   5, J=   5


     1 CALLS TO GCG PACKAGE FOR TRANSPORT TIME STEP   1 IN FLOW TIME STEP  29 STRESS PERIOD   3
     2 TOTAL ITERATIONS
  MAXIMUM CONCENTRATION CHANGES FOR EACH ITERATION:
  MAX. CHANGE LAYER,ROW,COL MAX. CHANGE LAYER,ROW,COL MAX. CHANGE LAYER,ROW,COL MAX. CHANGE LAYER,ROW,COL MAX. CHANGE LAYER,ROW,COL
 ------------------------------------------------------------------------------------------------------------------------------------
   0.7287E-02 (  1,  5,  5)  0.5821E-10 (  1,  4,  6)


                                          ================================================
                                                         TIME STEP NO.  030
                                          ================================================

 FROM TIME =   130.00     TO    131.00    


                    "THKSAT          " FLOW TERMS FOR TIME STEP 30, STRESS PERIOD  3 READ UNFORMATTED ON UNIT 10
                    --------------------------------------------------------------------------------------------

                    "QXX             " FLOW TERMS FOR TIME STEP 30, STRESS PERIOD  3 READ UNFORMATTED ON UNIT 10
                    --------------------------------------------------------------------------------------------

                    "QYY             " FLOW TERMS FOR TIME STEP 30, STRESS PERIOD  3 READ UNFORMATTED ON UNIT 10
                    --------------------------------------------------------------------------------------------

                    "QZZ             " FLOW TERMS FOR TIME STEP 30, STRESS PERIOD  3 READ UNFORMATTED ON UNIT 10
                    --------------------------------------------------------------------------------------------

                    "STO             " FLOW TERMS FOR TIME STEP 30, STRESS PERIOD  3 READ UNFORMATTED ON UNIT 10
                    --------------------------------------------------------------------------------------------

 MAXIMUM STEPSIZE DURING WHICH ANY PARTICLE CANNOT MOVE MORE THAN ONE CELL
 =  422.2    (WHEN MIN. R.F.=1)  AT K=   2, I=   5, J=   5

 MAXIMUM STEPSIZE WHICH MEETS STABILITY CRITERION OF THE ADVECTION TERM
 (FOR PURE FINITE-DIFFERENCE OPTION, MIXELM=0) 
 =  135.3    (WHEN MIN. R.F.=1)  AT K=   2, I=   5, J=   5

                    "CNH             " FLOW TERMS FOR TIME STEP 30, STRESS PERIOD  3 READ UNFORMATTED ON UNIT 10
                    --------------------------------------------------------------------------------------------

                    "WEL             " FLOW TERMS FOR TIME STEP 30, STRESS PERIOD  3 READ UNFORMATTED ON UNIT 10
                    --------------------------------------------------------------------------------------------

                    "GHB             " FLOW TERMS FOR TIME STEP 30, STRESS PERIOD  3 READ UNFORMATTED ON UNIT 10
                    --------------------------------------------------------------------------------------------


 TOTAL NUMBER OF POINT SOURCES/SINKS PRESENT IN THE FLOW MODEL =    41

 MAXIMUM STEPSIZE WHICH MEETS STABILITY CRITERION OF THE SINK & SOURCE TERM
 =  90.00    (WHEN MIN. R.F.=1)  AT K=   1, I=   5, J=   5

 MAXIMUM STEPSIZE WHICH MEETS STABILITY CRITERION OF THE DISPERSION TERM
 =  267.6    (WHEN MIN. R.F.=1)  AT K=   1, I=   5, J=   5


     1 CALLS TO GCG PACKAGE FOR TRANSPORT TIME STEP   1 IN FLOW TIME STEP  30 STRESS PERIOD   3
     2 TOTAL ITERATIONS
  MAXIMUM CONCENTRATION CHANGES FOR EACH ITERATION:
  MAX. CHANGE LAYER,ROW,COL MAX. CHANGE LAYER,ROW,COL MAX. CHANGE LAYER,ROW,COL MAX. CHANGE LAYER,ROW,COL MAX. CHANGE LAYER,ROW,COL
 ------------------------------------------------------------------------------------------------------------------------------------
   0.7141E-02 (  1,  5,  5)  0.5821E-10 (  1,  4,  6)


                                          ================================================
                                                         TIME STEP NO.  031
                                          ================================================

 FROM TIME =   131.00     TO    132.00    


                    "THKSAT          " FLOW TERMS FOR TIME STEP 31, STRESS PERIOD  3 READ UNFORMATTED ON UNIT 10
                    --------------------------------------------------------------------------------------------

                    "QXX             " FLOW TERMS FOR TIME STEP 31, STRESS PERIOD  3 READ UNFORMATTED ON UNIT 10
                    --------------------------------------------------------------------------------------------

                    "QYY             " FLOW TERMS FOR TIME STEP 31, STRESS PERIOD  3 READ UNFORMATTED ON UNIT 10
                    --------------------------------------------------------------------------------------------

                    "QZZ             " FLOW TERMS FOR TIME STEP 31, STRESS PERIOD  3 READ UNFORMATTED ON UNIT 10
                    --------------------------------------------------------------------------------------------

                    "STO             " FLOW TERMS FOR TIME STEP 31, STRESS PERIOD  3 READ UNFORMATTED ON UNIT 10
                    --------------------------------------------------------------------------------------------

 MAXIMUM STEPSIZE DURING WHICH ANY PARTICLE CANNOT MOVE MORE THAN ONE CELL
 =  422.2    (WHEN MIN. R.F.=1)  AT K=   2, I=   5, J=   5

 MAXIMUM STEPSIZE WHICH MEETS STABILITY CRITERION OF THE ADVECTION TERM
 (FOR PURE FINITE-DIFFERENCE OPTION, MIXELM=0) 
 =  135.3    (WHEN MIN. R.F.=1)  AT K=   2, I=   5, J=   5

                    "CNH             " FLOW TERMS FOR TIME STEP 31, STRESS PERIOD  3 READ UNFORMATTED ON UNIT 10
                    --------------------------------------------------------------------------------------------

                    "WEL             " FLOW TERMS FOR TIME STEP 31, STRESS PERIOD  3 READ UNFORMATTED ON UNIT 10
                    --------------------------------------------------------------------------------------------

                    "GHB             " FLOW TERMS FOR TIME STEP 31, STRESS PERIOD  3 READ UNFORMATTED ON UNIT 10
                    --------------------------------------------------------------------------------------------


 TOTAL NUMBER OF POINT SOURCES/SINKS PRESENT IN THE FLOW MODEL =    41

 MAXIMUM STEPSIZE WHICH MEETS STABILITY CRITERION OF THE SINK & SOURCE TERM
 =  90.00    (WHEN MIN. R.F.=1)  AT K=   1, I=   5, J=   5

 MAXIMUM STEPSIZE WHICH MEETS STABILITY CRITERION OF THE DISPERSION TERM
 =  267.6    (WHEN MIN. R.F.=1)  AT K=   1, I=   5, J=   5


     1 CALLS TO GCG PACKAGE FOR TRANSPORT TIME STEP   1 IN FLOW TIME STEP  31 STRESS PERIOD   3
     2 TOTAL ITERATIONS
  MAXIMUM CONCENTRATION CHANGES FOR EACH ITERATION:
  MAX. CHANGE LAYER,ROW,COL MAX. CHANGE LAYER,ROW,COL MAX. CHANGE LAYER,ROW,COL MAX. CHANGE LAYER,ROW,COL MAX. CHANGE LAYER,ROW,COL
 ------------------------------------------------------------------------------------------------------------------------------------
   0.6998E-02 (  1,  5,  5)  0.5821E-10 (  1,  4,  6)


                                          ================================================
                                                         TIME STEP NO.  032
                                          ================================================

 FROM TIME =   132.00     TO    133.00    


                    "THKSAT          " FLOW TERMS FOR TIME STEP 32, STRESS PERIOD  3 READ UNFORMATTED ON UNIT 10
                    --------------------------------------------------------------------------------------------

                    "QXX             " FLOW TERMS FOR TIME STEP 32, STRESS PERIOD  3 READ UNFORMATTED ON UNIT 10
                    --------------------------------------------------------------------------------------------

                    "QYY             " FLOW TERMS FOR TIME STEP 32, STRESS PERIOD  3 READ UNFORMATTED ON UNIT 10
                    --------------------------------------------------------------------------------------------

                    "QZZ             " FLOW TERMS FOR TIME STEP 32, STRESS PERIOD  3 READ UNFORMATTED ON UNIT 10
                    --------------------------------------------------------------------------------------------

                    "STO             " FLOW TERMS FOR TIME STEP 32, STRESS PERIOD  3 READ UNFORMATTED ON UNIT 10
                    --------------------------------------------------------------------------------------------

 MAXIMUM STEPSIZE DURING WHICH ANY PARTICLE CANNOT MOVE MORE THAN ONE CELL
 =  422.2    (WHEN MIN. R.F.=1)  AT K=   2, I=   5, J=   5

 MAXIMUM STEPSIZE WHICH MEETS STABILITY CRITERION OF THE ADVECTION TERM
 (FOR PURE FINITE-DIFFERENCE OPTION, MIXELM=0) 
 =  135.3    (WHEN MIN. R.F.=1)  AT K=   2, I=   5, J=   5

                    "CNH             " FLOW TERMS FOR TIME STEP 32, STRESS PERIOD  3 READ UNFORMATTED ON UNIT 10
                    --------------------------------------------------------------------------------------------

                    "WEL             " FLOW TERMS FOR TIME STEP 32, STRESS PERIOD  3 READ UNFORMATTED ON UNIT 10
                    --------------------------------------------------------------------------------------------

                    "GHB             " FLOW TERMS FOR TIME STEP 32, STRESS PERIOD  3 READ UNFORMATTED ON UNIT 10
                    --------------------------------------------------------------------------------------------


 TOTAL NUMBER OF POINT SOURCES/SINKS PRESENT IN THE FLOW MODEL =    41

 MAXIMUM STEPSIZE WHICH MEETS STABILITY CRITERION OF THE SINK & SOURCE TERM
 =  90.00    (WHEN MIN. R.F.=1)  AT K=   1, I=   5, J=   5

 MAXIMUM STEPSIZE WHICH MEETS STABILITY CRITERION OF THE DISPERSION TERM
 =  267.6    (WHEN MIN. R.F.=1)  AT K=   1, I=   5, J=   5


     1 CALLS TO GCG PACKAGE FOR TRANSPORT TIME STEP   1 IN FLOW TIME STEP  32 STRESS PERIOD   3
     2 TOTAL ITERATIONS
  MAXIMUM CONCENTRATION CHANGES FOR EACH ITERATION:
  MAX. CHANGE LAYER,ROW,COL MAX. CHANGE LAYER,ROW,COL MAX. CHANGE LAYER,ROW,COL MAX. CHANGE LAYER,ROW,COL MAX. CHANGE LAYER,ROW,COL
 ------------------------------------------------------------------------------------------------------------------------------------
   0.6860E-02 (  1,  5,  5)  0.5821E-10 (  1,  4,  6)


                                          ================================================
                                                         TIME STEP NO.  033
                                          ================================================

 FROM TIME =   133.00     TO    134.00    


                    "THKSAT          " FLOW TERMS FOR TIME STEP 33, STRESS PERIOD  3 READ UNFORMATTED ON UNIT 10
                    --------------------------------------------------------------------------------------------

                    "QXX             " FLOW TERMS FOR TIME STEP 33, STRESS PERIOD  3 READ UNFORMATTED ON UNIT 10
                    --------------------------------------------------------------------------------------------

                    "QYY             " FLOW TERMS FOR TIME STEP 33, STRESS PERIOD  3 READ UNFORMATTED ON UNIT 10
                    --------------------------------------------------------------------------------------------

                    "QZZ             " FLOW TERMS FOR TIME STEP 33, STRESS PERIOD  3 READ UNFORMATTED ON UNIT 10
                    --------------------------------------------------------------------------------------------

                    "STO             " FLOW TERMS FOR TIME STEP 33, STRESS PERIOD  3 READ UNFORMATTED ON UNIT 10
                    --------------------------------------------------------------------------------------------

 MAXIMUM STEPSIZE DURING WHICH ANY PARTICLE CANNOT MOVE MORE THAN ONE CELL
 =  422.2    (WHEN MIN. R.F.=1)  AT K=   2, I=   5, J=   5

 MAXIMUM STEPSIZE WHICH MEETS STABILITY CRITERION OF THE ADVECTION TERM
 (FOR PURE FINITE-DIFFERENCE OPTION, MIXELM=0) 
 =  135.3    (WHEN MIN. R.F.=1)  AT K=   2, I=   5, J=   5

                    "CNH             " FLOW TERMS FOR TIME STEP 33, STRESS PERIOD  3 READ UNFORMATTED ON UNIT 10
                    --------------------------------------------------------------------------------------------

                    "WEL             " FLOW TERMS FOR TIME STEP 33, STRESS PERIOD  3 READ UNFORMATTED ON UNIT 10
                    --------------------------------------------------------------------------------------------

                    "GHB             " FLOW TERMS FOR TIME STEP 33, STRESS PERIOD  3 READ UNFORMATTED ON UNIT 10
                    --------------------------------------------------------------------------------------------


 TOTAL NUMBER OF POINT SOURCES/SINKS PRESENT IN THE FLOW MODEL =    41

 MAXIMUM STEPSIZE WHICH MEETS STABILITY CRITERION OF THE SINK & SOURCE TERM
 =  90.00    (WHEN MIN. R.F.=1)  AT K=   1, I=   5, J=   5

 MAXIMUM STEPSIZE WHICH MEETS STABILITY CRITERION OF THE DISPERSION TERM
 =  267.6    (WHEN MIN. R.F.=1)  AT K=   1, I=   5, J=   5


     1 CALLS TO GCG PACKAGE FOR TRANSPORT TIME STEP   1 IN FLOW TIME STEP  33 STRESS PERIOD   3
     2 TOTAL ITERATIONS
  MAXIMUM CONCENTRATION CHANGES FOR EACH ITERATION:
  MAX. CHANGE LAYER,ROW,COL MAX. CHANGE LAYER,ROW,COL MAX. CHANGE LAYER,ROW,COL MAX. CHANGE LAYER,ROW,COL MAX. CHANGE LAYER,ROW,COL
 ------------------------------------------------------------------------------------------------------------------------------------
   0.6725E-02 (  1,  5,  5)  0.5821E-10 (  1,  4,  6)


                                          ================================================
                                                         TIME STEP NO.  034
                                          ================================================

 FROM TIME =   134.00     TO    135.00    


                    "THKSAT          " FLOW TERMS FOR TIME STEP 34, STRESS PERIOD  3 READ UNFORMATTED ON UNIT 10
                    --------------------------------------------------------------------------------------------

                    "QXX             " FLOW TERMS FOR TIME STEP 34, STRESS PERIOD  3 READ UNFORMATTED ON UNIT 10
                    --------------------------------------------------------------------------------------------

                    "QYY             " FLOW TERMS FOR TIME STEP 34, STRESS PERIOD  3 READ UNFORMATTED ON UNIT 10
                    --------------------------------------------------------------------------------------------

                    "QZZ             " FLOW TERMS FOR TIME STEP 34, STRESS PERIOD  3 READ UNFORMATTED ON UNIT 10
                    --------------------------------------------------------------------------------------------

                    "STO             " FLOW TERMS FOR TIME STEP 34, STRESS PERIOD  3 READ UNFORMATTED ON UNIT 10
                    --------------------------------------------------------------------------------------------

 MAXIMUM STEPSIZE DURING WHICH ANY PARTICLE CANNOT MOVE MORE THAN ONE CELL
 =  422.2    (WHEN MIN. R.F.=1)  AT K=   2, I=   5, J=   5

 MAXIMUM STEPSIZE WHICH MEETS STABILITY CRITERION OF THE ADVECTION TERM
 (FOR PURE FINITE-DIFFERENCE OPTION, MIXELM=0) 
 =  135.3    (WHEN MIN. R.F.=1)  AT K=   2, I=   5, J=   5

                    "CNH             " FLOW TERMS FOR TIME STEP 34, STRESS PERIOD  3 READ UNFORMATTED ON UNIT 10
                    --------------------------------------------------------------------------------------------

                    "WEL             " FLOW TERMS FOR TIME STEP 34, STRESS PERIOD  3 READ UNFORMATTED ON UNIT 10
                    --------------------------------------------------------------------------------------------

                    "GHB             " FLOW TERMS FOR TIME STEP 34, STRESS PERIOD  3 READ UNFORMATTED ON UNIT 10
                    --------------------------------------------------------------------------------------------


 TOTAL NUMBER OF POINT SOURCES/SINKS PRESENT IN THE FLOW MODEL =    41

 MAXIMUM STEPSIZE WHICH MEETS STABILITY CRITERION OF THE SINK & SOURCE TERM
 =  90.00    (WHEN MIN. R.F.=1)  AT K=   1, I=   5, J=   5

 MAXIMUM STEPSIZE WHICH MEETS STABILITY CRITERION OF THE DISPERSION TERM
 =  267.6    (WHEN MIN. R.F.=1)  AT K=   1, I=   5, J=   5


     1 CALLS TO GCG PACKAGE FOR TRANSPORT TIME STEP   1 IN FLOW TIME STEP  34 STRESS PERIOD   3
     2 TOTAL ITERATIONS
  MAXIMUM CONCENTRATION CHANGES FOR EACH ITERATION:
  MAX. CHANGE LAYER,ROW,COL MAX. CHANGE LAYER,ROW,COL MAX. CHANGE LAYER,ROW,COL MAX. CHANGE LAYER,ROW,COL MAX. CHANGE LAYER,ROW,COL
 ------------------------------------------------------------------------------------------------------------------------------------
   0.6593E-02 (  1,  5,  5)  0.5821E-10 (  1,  4,  6)


                                          ================================================
                                                         TIME STEP NO.  035
                                          ================================================

 FROM TIME =   135.00     TO    136.00    


                    "THKSAT          " FLOW TERMS FOR TIME STEP 35, STRESS PERIOD  3 READ UNFORMATTED ON UNIT 10
                    --------------------------------------------------------------------------------------------

                    "QXX             " FLOW TERMS FOR TIME STEP 35, STRESS PERIOD  3 READ UNFORMATTED ON UNIT 10
                    --------------------------------------------------------------------------------------------

                    "QYY             " FLOW TERMS FOR TIME STEP 35, STRESS PERIOD  3 READ UNFORMATTED ON UNIT 10
                    --------------------------------------------------------------------------------------------

                    "QZZ             " FLOW TERMS FOR TIME STEP 35, STRESS PERIOD  3 READ UNFORMATTED ON UNIT 10
                    --------------------------------------------------------------------------------------------

                    "STO             " FLOW TERMS FOR TIME STEP 35, STRESS PERIOD  3 READ UNFORMATTED ON UNIT 10
                    --------------------------------------------------------------------------------------------

 MAXIMUM STEPSIZE DURING WHICH ANY PARTICLE CANNOT MOVE MORE THAN ONE CELL
 =  422.2    (WHEN MIN. R.F.=1)  AT K=   2, I=   5, J=   5

 MAXIMUM STEPSIZE WHICH MEETS STABILITY CRITERION OF THE ADVECTION TERM
 (FOR PURE FINITE-DIFFERENCE OPTION, MIXELM=0) 
 =  135.3    (WHEN MIN. R.F.=1)  AT K=   2, I=   5, J=   5

                    "CNH             " FLOW TERMS FOR TIME STEP 35, STRESS PERIOD  3 READ UNFORMATTED ON UNIT 10
                    --------------------------------------------------------------------------------------------

                    "WEL             " FLOW TERMS FOR TIME STEP 35, STRESS PERIOD  3 READ UNFORMATTED ON UNIT 10
                    --------------------------------------------------------------------------------------------

                    "GHB             " FLOW TERMS FOR TIME STEP 35, STRESS PERIOD  3 READ UNFORMATTED ON UNIT 10
                    --------------------------------------------------------------------------------------------


 TOTAL NUMBER OF POINT SOURCES/SINKS PRESENT IN THE FLOW MODEL =    41

 MAXIMUM STEPSIZE WHICH MEETS STABILITY CRITERION OF THE SINK & SOURCE TERM
 =  90.00    (WHEN MIN. R.F.=1)  AT K=   1, I=   5, J=   5

 MAXIMUM STEPSIZE WHICH MEETS STABILITY CRITERION OF THE DISPERSION TERM
 =  267.5    (WHEN MIN. R.F.=1)  AT K=   1, I=   5, J=   5


     1 CALLS TO GCG PACKAGE FOR TRANSPORT TIME STEP   1 IN FLOW TIME STEP  35 STRESS PERIOD   3
     2 TOTAL ITERATIONS
  MAXIMUM CONCENTRATION CHANGES FOR EACH ITERATION:
  MAX. CHANGE LAYER,ROW,COL MAX. CHANGE LAYER,ROW,COL MAX. CHANGE LAYER,ROW,COL MAX. CHANGE LAYER,ROW,COL MAX. CHANGE LAYER,ROW,COL
 ------------------------------------------------------------------------------------------------------------------------------------
   0.6465E-02 (  1,  5,  5)  0.5821E-10 (  1,  4,  6)


                                          ================================================
                                                         TIME STEP NO.  036
                                          ================================================

 FROM TIME =   136.00     TO    137.00    


                    "THKSAT          " FLOW TERMS FOR TIME STEP 36, STRESS PERIOD  3 READ UNFORMATTED ON UNIT 10
                    --------------------------------------------------------------------------------------------

                    "QXX             " FLOW TERMS FOR TIME STEP 36, STRESS PERIOD  3 READ UNFORMATTED ON UNIT 10
                    --------------------------------------------------------------------------------------------

                    "QYY             " FLOW TERMS FOR TIME STEP 36, STRESS PERIOD  3 READ UNFORMATTED ON UNIT 10
                    --------------------------------------------------------------------------------------------

                    "QZZ             " FLOW TERMS FOR TIME STEP 36, STRESS PERIOD  3 READ UNFORMATTED ON UNIT 10
                    --------------------------------------------------------------------------------------------

                    "STO             " FLOW TERMS FOR TIME STEP 36, STRESS PERIOD  3 READ UNFORMATTED ON UNIT 10
                    --------------------------------------------------------------------------------------------

 MAXIMUM STEPSIZE DURING WHICH ANY PARTICLE CANNOT MOVE MORE THAN ONE CELL
 =  422.2    (WHEN MIN. R.F.=1)  AT K=   2, I=   5, J=   5

 MAXIMUM STEPSIZE WHICH MEETS STABILITY CRITERION OF THE ADVECTION TERM
 (FOR PURE FINITE-DIFFERENCE OPTION, MIXELM=0) 
 =  135.3    (WHEN MIN. R.F.=1)  AT K=   2, I=   5, J=   5

                    "CNH             " FLOW TERMS FOR TIME STEP 36, STRESS PERIOD  3 READ UNFORMATTED ON UNIT 10
                    --------------------------------------------------------------------------------------------

                    "WEL             " FLOW TERMS FOR TIME STEP 36, STRESS PERIOD  3 READ UNFORMATTED ON UNIT 10
                    --------------------------------------------------------------------------------------------

                    "GHB             " FLOW TERMS FOR TIME STEP 36, STRESS PERIOD  3 READ UNFORMATTED ON UNIT 10
                    --------------------------------------------------------------------------------------------


 TOTAL NUMBER OF POINT SOURCES/SINKS PRESENT IN THE FLOW MODEL =    41

 MAXIMUM STEPSIZE WHICH MEETS STABILITY CRITERION OF THE SINK & SOURCE TERM
 =  90.00    (WHEN MIN. R.F.=1)  AT K=   1, I=   5, J=   5

 MAXIMUM STEPSIZE WHICH MEETS STABILITY CRITERION OF THE DISPERSION TERM
 =  267.5    (WHEN MIN. R.F.=1)  AT K=   1, I=   5, J=   5


     1 CALLS TO GCG PACKAGE FOR TRANSPORT TIME STEP   1 IN FLOW TIME STEP  36 STRESS PERIOD   3
     2 TOTAL ITERATIONS
  MAXIMUM CONCENTRATION CHANGES FOR EACH ITERATION:
  MAX. CHANGE LAYER,ROW,COL MAX. CHANGE LAYER,ROW,COL MAX. CHANGE LAYER,ROW,COL MAX. CHANGE LAYER,ROW,COL MAX. CHANGE LAYER,ROW,COL
 ------------------------------------------------------------------------------------------------------------------------------------
   0.6341E-02 (  1,  5,  5)  0.5821E-10 (  1,  4,  6)


                                          ================================================
                                                         TIME STEP NO.  037
                                          ================================================

 FROM TIME =   137.00     TO    138.00    


                    "THKSAT          " FLOW TERMS FOR TIME STEP 37, STRESS PERIOD  3 READ UNFORMATTED ON UNIT 10
                    --------------------------------------------------------------------------------------------

                    "QXX             " FLOW TERMS FOR TIME STEP 37, STRESS PERIOD  3 READ UNFORMATTED ON UNIT 10
                    --------------------------------------------------------------------------------------------

                    "QYY             " FLOW TERMS FOR TIME STEP 37, STRESS PERIOD  3 READ UNFORMATTED ON UNIT 10
                    --------------------------------------------------------------------------------------------

                    "QZZ             " FLOW TERMS FOR TIME STEP 37, STRESS PERIOD  3 READ UNFORMATTED ON UNIT 10
                    --------------------------------------------------------------------------------------------

                    "STO             " FLOW TERMS FOR TIME STEP 37, STRESS PERIOD  3 READ UNFORMATTED ON UNIT 10
                    --------------------------------------------------------------------------------------------

 MAXIMUM STEPSIZE DURING WHICH ANY PARTICLE CANNOT MOVE MORE THAN ONE CELL
 =  422.2    (WHEN MIN. R.F.=1)  AT K=   2, I=   5, J=   5

 MAXIMUM STEPSIZE WHICH MEETS STABILITY CRITERION OF THE ADVECTION TERM
 (FOR PURE FINITE-DIFFERENCE OPTION, MIXELM=0) 
 =  135.3    (WHEN MIN. R.F.=1)  AT K=   2, I=   5, J=   5

                    "CNH             " FLOW TERMS FOR TIME STEP 37, STRESS PERIOD  3 READ UNFORMATTED ON UNIT 10
                    --------------------------------------------------------------------------------------------

                    "WEL             " FLOW TERMS FOR TIME STEP 37, STRESS PERIOD  3 READ UNFORMATTED ON UNIT 10
                    --------------------------------------------------------------------------------------------

                    "GHB             " FLOW TERMS FOR TIME STEP 37, STRESS PERIOD  3 READ UNFORMATTED ON UNIT 10
                    --------------------------------------------------------------------------------------------


 TOTAL NUMBER OF POINT SOURCES/SINKS PRESENT IN THE FLOW MODEL =    41

 MAXIMUM STEPSIZE WHICH MEETS STABILITY CRITERION OF THE SINK & SOURCE TERM
 =  90.00    (WHEN MIN. R.F.=1)  AT K=   1, I=   5, J=   5

 MAXIMUM STEPSIZE WHICH MEETS STABILITY CRITERION OF THE DISPERSION TERM
 =  267.5    (WHEN MIN. R.F.=1)  AT K=   1, I=   5, J=   5


     1 CALLS TO GCG PACKAGE FOR TRANSPORT TIME STEP   1 IN FLOW TIME STEP  37 STRESS PERIOD   3
     2 TOTAL ITERATIONS
  MAXIMUM CONCENTRATION CHANGES FOR EACH ITERATION:
  MAX. CHANGE LAYER,ROW,COL MAX. CHANGE LAYER,ROW,COL MAX. CHANGE LAYER,ROW,COL MAX. CHANGE LAYER,ROW,COL MAX. CHANGE LAYER,ROW,COL
 ------------------------------------------------------------------------------------------------------------------------------------
   0.6220E-02 (  1,  5,  5)  0.5821E-10 (  1,  4,  6)


                                          ================================================
                                                         TIME STEP NO.  038
                                          ================================================

 FROM TIME =   138.00     TO    139.00    


                    "THKSAT          " FLOW TERMS FOR TIME STEP 38, STRESS PERIOD  3 READ UNFORMATTED ON UNIT 10
                    --------------------------------------------------------------------------------------------

                    "QXX             " FLOW TERMS FOR TIME STEP 38, STRESS PERIOD  3 READ UNFORMATTED ON UNIT 10
                    --------------------------------------------------------------------------------------------

                    "QYY             " FLOW TERMS FOR TIME STEP 38, STRESS PERIOD  3 READ UNFORMATTED ON UNIT 10
                    --------------------------------------------------------------------------------------------

                    "QZZ             " FLOW TERMS FOR TIME STEP 38, STRESS PERIOD  3 READ UNFORMATTED ON UNIT 10
                    --------------------------------------------------------------------------------------------

                    "STO             " FLOW TERMS FOR TIME STEP 38, STRESS PERIOD  3 READ UNFORMATTED ON UNIT 10
                    --------------------------------------------------------------------------------------------

 MAXIMUM STEPSIZE DURING WHICH ANY PARTICLE CANNOT MOVE MORE THAN ONE CELL
 =  422.2    (WHEN MIN. R.F.=1)  AT K=   2, I=   5, J=   5

 MAXIMUM STEPSIZE WHICH MEETS STABILITY CRITERION OF THE ADVECTION TERM
 (FOR PURE FINITE-DIFFERENCE OPTION, MIXELM=0) 
 =  135.3    (WHEN MIN. R.F.=1)  AT K=   2, I=   5, J=   5

                    "CNH             " FLOW TERMS FOR TIME STEP 38, STRESS PERIOD  3 READ UNFORMATTED ON UNIT 10
                    --------------------------------------------------------------------------------------------

                    "WEL             " FLOW TERMS FOR TIME STEP 38, STRESS PERIOD  3 READ UNFORMATTED ON UNIT 10
                    --------------------------------------------------------------------------------------------

                    "GHB             " FLOW TERMS FOR TIME STEP 38, STRESS PERIOD  3 READ UNFORMATTED ON UNIT 10
                    --------------------------------------------------------------------------------------------


 TOTAL NUMBER OF POINT SOURCES/SINKS PRESENT IN THE FLOW MODEL =    41

 MAXIMUM STEPSIZE WHICH MEETS STABILITY CRITERION OF THE SINK & SOURCE TERM
 =  90.00    (WHEN MIN. R.F.=1)  AT K=   1, I=   5, J=   5

 MAXIMUM STEPSIZE WHICH MEETS STABILITY CRITERION OF THE DISPERSION TERM
 =  267.5    (WHEN MIN. R.F.=1)  AT K=   1, I=   5, J=   5


     1 CALLS TO GCG PACKAGE FOR TRANSPORT TIME STEP   1 IN FLOW TIME STEP  38 STRESS PERIOD   3
     2 TOTAL ITERATIONS
  MAXIMUM CONCENTRATION CHANGES FOR EACH ITERATION:
  MAX. CHANGE LAYER,ROW,COL MAX. CHANGE LAYER,ROW,COL MAX. CHANGE LAYER,ROW,COL MAX. CHANGE LAYER,ROW,COL MAX. CHANGE LAYER,ROW,COL
 ------------------------------------------------------------------------------------------------------------------------------------
   0.6102E-02 (  1,  5,  5)  0.5821E-10 (  1,  4,  6)


                                          ================================================
                                                         TIME STEP NO.  039
                                          ================================================

 FROM TIME =   139.00     TO    140.00    


                    "THKSAT          " FLOW TERMS FOR TIME STEP 39, STRESS PERIOD  3 READ UNFORMATTED ON UNIT 10
                    --------------------------------------------------------------------------------------------

                    "QXX             " FLOW TERMS FOR TIME STEP 39, STRESS PERIOD  3 READ UNFORMATTED ON UNIT 10
                    --------------------------------------------------------------------------------------------

                    "QYY             " FLOW TERMS FOR TIME STEP 39, STRESS PERIOD  3 READ UNFORMATTED ON UNIT 10
                    --------------------------------------------------------------------------------------------

                    "QZZ             " FLOW TERMS FOR TIME STEP 39, STRESS PERIOD  3 READ UNFORMATTED ON UNIT 10
                    --------------------------------------------------------------------------------------------

                    "STO             " FLOW TERMS FOR TIME STEP 39, STRESS PERIOD  3 READ UNFORMATTED ON UNIT 10
                    --------------------------------------------------------------------------------------------

 MAXIMUM STEPSIZE DURING WHICH ANY PARTICLE CANNOT MOVE MORE THAN ONE CELL
 =  422.2    (WHEN MIN. R.F.=1)  AT K=   2, I=   5, J=   5

 MAXIMUM STEPSIZE WHICH MEETS STABILITY CRITERION OF THE ADVECTION TERM
 (FOR PURE FINITE-DIFFERENCE OPTION, MIXELM=0) 
 =  135.3    (WHEN MIN. R.F.=1)  AT K=   2, I=   5, J=   5

                    "CNH             " FLOW TERMS FOR TIME STEP 39, STRESS PERIOD  3 READ UNFORMATTED ON UNIT 10
                    --------------------------------------------------------------------------------------------

                    "WEL             " FLOW TERMS FOR TIME STEP 39, STRESS PERIOD  3 READ UNFORMATTED ON UNIT 10
                    --------------------------------------------------------------------------------------------

                    "GHB             " FLOW TERMS FOR TIME STEP 39, STRESS PERIOD  3 READ UNFORMATTED ON UNIT 10
                    --------------------------------------------------------------------------------------------


 TOTAL NUMBER OF POINT SOURCES/SINKS PRESENT IN THE FLOW MODEL =    41

 MAXIMUM STEPSIZE WHICH MEETS STABILITY CRITERION OF THE SINK & SOURCE TERM
 =  90.00    (WHEN MIN. R.F.=1)  AT K=   1, I=   5, J=   5

 MAXIMUM STEPSIZE WHICH MEETS STABILITY CRITERION OF THE DISPERSION TERM
 =  267.5    (WHEN MIN. R.F.=1)  AT K=   1, I=   5, J=   5


     1 CALLS TO GCG PACKAGE FOR TRANSPORT TIME STEP   1 IN FLOW TIME STEP  39 STRESS PERIOD   3
     2 TOTAL ITERATIONS
  MAXIMUM CONCENTRATION CHANGES FOR EACH ITERATION:
  MAX. CHANGE LAYER,ROW,COL MAX. CHANGE LAYER,ROW,COL MAX. CHANGE LAYER,ROW,COL MAX. CHANGE LAYER,ROW,COL MAX. CHANGE LAYER,ROW,COL
 ------------------------------------------------------------------------------------------------------------------------------------
   0.5986E-02 (  1,  5,  5)  0.5821E-10 (  1,  4,  6)


                                          ================================================
                                                         TIME STEP NO.  040
                                          ================================================

 FROM TIME =   140.00     TO    141.00    


                    "THKSAT          " FLOW TERMS FOR TIME STEP 40, STRESS PERIOD  3 READ UNFORMATTED ON UNIT 10
                    --------------------------------------------------------------------------------------------

                    "QXX             " FLOW TERMS FOR TIME STEP 40, STRESS PERIOD  3 READ UNFORMATTED ON UNIT 10
                    --------------------------------------------------------------------------------------------

                    "QYY             " FLOW TERMS FOR TIME STEP 40, STRESS PERIOD  3 READ UNFORMATTED ON UNIT 10
                    --------------------------------------------------------------------------------------------

                    "QZZ             " FLOW TERMS FOR TIME STEP 40, STRESS PERIOD  3 READ UNFORMATTED ON UNIT 10
                    --------------------------------------------------------------------------------------------

                    "STO             " FLOW TERMS FOR TIME STEP 40, STRESS PERIOD  3 READ UNFORMATTED ON UNIT 10
                    --------------------------------------------------------------------------------------------

 MAXIMUM STEPSIZE DURING WHICH ANY PARTICLE CANNOT MOVE MORE THAN ONE CELL
 =  422.2    (WHEN MIN. R.F.=1)  AT K=   2, I=   5, J=   5

 MAXIMUM STEPSIZE WHICH MEETS STABILITY CRITERION OF THE ADVECTION TERM
 (FOR PURE FINITE-DIFFERENCE OPTION, MIXELM=0) 
 =  135.3    (WHEN MIN. R.F.=1)  AT K=   2, I=   5, J=   5

                    "CNH             " FLOW TERMS FOR TIME STEP 40, STRESS PERIOD  3 READ UNFORMATTED ON UNIT 10
                    --------------------------------------------------------------------------------------------

                    "WEL             " FLOW TERMS FOR TIME STEP 40, STRESS PERIOD  3 READ UNFORMATTED ON UNIT 10
                    --------------------------------------------------------------------------------------------

                    "GHB             " FLOW TERMS FOR TIME STEP 40, STRESS PERIOD  3 READ UNFORMATTED ON UNIT 10
                    --------------------------------------------------------------------------------------------


 TOTAL NUMBER OF POINT SOURCES/SINKS PRESENT IN THE FLOW MODEL =    41

 MAXIMUM STEPSIZE WHICH MEETS STABILITY CRITERION OF THE SINK & SOURCE TERM
 =  90.00    (WHEN MIN. R.F.=1)  AT K=   1, I=   5, J=   5

 MAXIMUM STEPSIZE WHICH MEETS STABILITY CRITERION OF THE DISPERSION TERM
 =  267.5    (WHEN MIN. R.F.=1)  AT K=   1, I=   5, J=   5


     1 CALLS TO GCG PACKAGE FOR TRANSPORT TIME STEP   1 IN FLOW TIME STEP  40 STRESS PERIOD   3
     2 TOTAL ITERATIONS
  MAXIMUM CONCENTRATION CHANGES FOR EACH ITERATION:
  MAX. CHANGE LAYER,ROW,COL MAX. CHANGE LAYER,ROW,COL MAX. CHANGE LAYER,ROW,COL MAX. CHANGE LAYER,ROW,COL MAX. CHANGE LAYER,ROW,COL
 ------------------------------------------------------------------------------------------------------------------------------------
   0.5874E-02 (  1,  5,  5)  0.5821E-10 (  1,  4,  6)


                                          ================================================
                                                         TIME STEP NO.  041
                                          ================================================

 FROM TIME =   141.00     TO    142.00    


                    "THKSAT          " FLOW TERMS FOR TIME STEP 41, STRESS PERIOD  3 READ UNFORMATTED ON UNIT 10
                    --------------------------------------------------------------------------------------------

                    "QXX             " FLOW TERMS FOR TIME STEP 41, STRESS PERIOD  3 READ UNFORMATTED ON UNIT 10
                    --------------------------------------------------------------------------------------------

                    "QYY             " FLOW TERMS FOR TIME STEP 41, STRESS PERIOD  3 READ UNFORMATTED ON UNIT 10
                    --------------------------------------------------------------------------------------------

                    "QZZ             " FLOW TERMS FOR TIME STEP 41, STRESS PERIOD  3 READ UNFORMATTED ON UNIT 10
                    --------------------------------------------------------------------------------------------

                    "STO             " FLOW TERMS FOR TIME STEP 41, STRESS PERIOD  3 READ UNFORMATTED ON UNIT 10
                    --------------------------------------------------------------------------------------------

 MAXIMUM STEPSIZE DURING WHICH ANY PARTICLE CANNOT MOVE MORE THAN ONE CELL
 =  422.2    (WHEN MIN. R.F.=1)  AT K=   2, I=   5, J=   5

 MAXIMUM STEPSIZE WHICH MEETS STABILITY CRITERION OF THE ADVECTION TERM
 (FOR PURE FINITE-DIFFERENCE OPTION, MIXELM=0) 
 =  135.3    (WHEN MIN. R.F.=1)  AT K=   2, I=   5, J=   5

                    "CNH             " FLOW TERMS FOR TIME STEP 41, STRESS PERIOD  3 READ UNFORMATTED ON UNIT 10
                    --------------------------------------------------------------------------------------------

                    "WEL             " FLOW TERMS FOR TIME STEP 41, STRESS PERIOD  3 READ UNFORMATTED ON UNIT 10
                    --------------------------------------------------------------------------------------------

                    "GHB             " FLOW TERMS FOR TIME STEP 41, STRESS PERIOD  3 READ UNFORMATTED ON UNIT 10
                    --------------------------------------------------------------------------------------------


 TOTAL NUMBER OF POINT SOURCES/SINKS PRESENT IN THE FLOW MODEL =    41

 MAXIMUM STEPSIZE WHICH MEETS STABILITY CRITERION OF THE SINK & SOURCE TERM
 =  90.00    (WHEN MIN. R.F.=1)  AT K=   1, I=   5, J=   5

 MAXIMUM STEPSIZE WHICH MEETS STABILITY CRITERION OF THE DISPERSION TERM
 =  267.5    (WHEN MIN. R.F.=1)  AT K=   1, I=   5, J=   5


     1 CALLS TO GCG PACKAGE FOR TRANSPORT TIME STEP   1 IN FLOW TIME STEP  41 STRESS PERIOD   3
     2 TOTAL ITERATIONS
  MAXIMUM CONCENTRATION CHANGES FOR EACH ITERATION:
  MAX. CHANGE LAYER,ROW,COL MAX. CHANGE LAYER,ROW,COL MAX. CHANGE LAYER,ROW,COL MAX. CHANGE LAYER,ROW,COL MAX. CHANGE LAYER,ROW,COL
 ------------------------------------------------------------------------------------------------------------------------------------
   0.5764E-02 (  1,  5,  5)  0.5821E-10 (  1,  4,  6)


                                          ================================================
                                                         TIME STEP NO.  042
                                          ================================================

 FROM TIME =   142.00     TO    143.00    


                    "THKSAT          " FLOW TERMS FOR TIME STEP 42, STRESS PERIOD  3 READ UNFORMATTED ON UNIT 10
                    --------------------------------------------------------------------------------------------

                    "QXX             " FLOW TERMS FOR TIME STEP 42, STRESS PERIOD  3 READ UNFORMATTED ON UNIT 10
                    --------------------------------------------------------------------------------------------

                    "QYY             " FLOW TERMS FOR TIME STEP 42, STRESS PERIOD  3 READ UNFORMATTED ON UNIT 10
                    --------------------------------------------------------------------------------------------

                    "QZZ             " FLOW TERMS FOR TIME STEP 42, STRESS PERIOD  3 READ UNFORMATTED ON UNIT 10
                    --------------------------------------------------------------------------------------------

                    "STO             " FLOW TERMS FOR TIME STEP 42, STRESS PERIOD  3 READ UNFORMATTED ON UNIT 10
                    --------------------------------------------------------------------------------------------

 MAXIMUM STEPSIZE DURING WHICH ANY PARTICLE CANNOT MOVE MORE THAN ONE CELL
 =  422.2    (WHEN MIN. R.F.=1)  AT K=   2, I=   5, J=   5

 MAXIMUM STEPSIZE WHICH MEETS STABILITY CRITERION OF THE ADVECTION TERM
 (FOR PURE FINITE-DIFFERENCE OPTION, MIXELM=0) 
 =  135.3    (WHEN MIN. R.F.=1)  AT K=   2, I=   5, J=   5

                    "CNH             " FLOW TERMS FOR TIME STEP 42, STRESS PERIOD  3 READ UNFORMATTED ON UNIT 10
                    --------------------------------------------------------------------------------------------

                    "WEL             " FLOW TERMS FOR TIME STEP 42, STRESS PERIOD  3 READ UNFORMATTED ON UNIT 10
                    --------------------------------------------------------------------------------------------

                    "GHB             " FLOW TERMS FOR TIME STEP 42, STRESS PERIOD  3 READ UNFORMATTED ON UNIT 10
                    --------------------------------------------------------------------------------------------


 TOTAL NUMBER OF POINT SOURCES/SINKS PRESENT IN THE FLOW MODEL =    41

 MAXIMUM STEPSIZE WHICH MEETS STABILITY CRITERION OF THE SINK & SOURCE TERM
 =  90.00    (WHEN MIN. R.F.=1)  AT K=   1, I=   5, J=   5

 MAXIMUM STEPSIZE WHICH MEETS STABILITY CRITERION OF THE DISPERSION TERM
 =  267.5    (WHEN MIN. R.F.=1)  AT K=   1, I=   5, J=   5


     1 CALLS TO GCG PACKAGE FOR TRANSPORT TIME STEP   1 IN FLOW TIME STEP  42 STRESS PERIOD   3
     2 TOTAL ITERATIONS
  MAXIMUM CONCENTRATION CHANGES FOR EACH ITERATION:
  MAX. CHANGE LAYER,ROW,COL MAX. CHANGE LAYER,ROW,COL MAX. CHANGE LAYER,ROW,COL MAX. CHANGE LAYER,ROW,COL MAX. CHANGE LAYER,ROW,COL
 ------------------------------------------------------------------------------------------------------------------------------------
   0.5658E-02 (  1,  5,  5)  0.2910E-10 (  1,  6,  4)


                                          ================================================
                                                         TIME STEP NO.  043
                                          ================================================

 FROM TIME =   143.00     TO    144.00    


                    "THKSAT          " FLOW TERMS FOR TIME STEP 43, STRESS PERIOD  3 READ UNFORMATTED ON UNIT 10
                    --------------------------------------------------------------------------------------------

                    "QXX             " FLOW TERMS FOR TIME STEP 43, STRESS PERIOD  3 READ UNFORMATTED ON UNIT 10
                    --------------------------------------------------------------------------------------------

                    "QYY             " FLOW TERMS FOR TIME STEP 43, STRESS PERIOD  3 READ UNFORMATTED ON UNIT 10
                    --------------------------------------------------------------------------------------------

                    "QZZ             " FLOW TERMS FOR TIME STEP 43, STRESS PERIOD  3 READ UNFORMATTED ON UNIT 10
                    --------------------------------------------------------------------------------------------

                    "STO             " FLOW TERMS FOR TIME STEP 43, STRESS PERIOD  3 READ UNFORMATTED ON UNIT 10
                    --------------------------------------------------------------------------------------------

 MAXIMUM STEPSIZE DURING WHICH ANY PARTICLE CANNOT MOVE MORE THAN ONE CELL
 =  422.2    (WHEN MIN. R.F.=1)  AT K=   2, I=   5, J=   5

 MAXIMUM STEPSIZE WHICH MEETS STABILITY CRITERION OF THE ADVECTION TERM
 (FOR PURE FINITE-DIFFERENCE OPTION, MIXELM=0) 
 =  135.3    (WHEN MIN. R.F.=1)  AT K=   2, I=   5, J=   5

                    "CNH             " FLOW TERMS FOR TIME STEP 43, STRESS PERIOD  3 READ UNFORMATTED ON UNIT 10
                    --------------------------------------------------------------------------------------------

                    "WEL             " FLOW TERMS FOR TIME STEP 43, STRESS PERIOD  3 READ UNFORMATTED ON UNIT 10
                    --------------------------------------------------------------------------------------------

                    "GHB             " FLOW TERMS FOR TIME STEP 43, STRESS PERIOD  3 READ UNFORMATTED ON UNIT 10
                    --------------------------------------------------------------------------------------------


 TOTAL NUMBER OF POINT SOURCES/SINKS PRESENT IN THE FLOW MODEL =    41

 MAXIMUM STEPSIZE WHICH MEETS STABILITY CRITERION OF THE SINK & SOURCE TERM
 =  90.00    (WHEN MIN. R.F.=1)  AT K=   1, I=   5, J=   5

 MAXIMUM STEPSIZE WHICH MEETS STABILITY CRITERION OF THE DISPERSION TERM
 =  267.5    (WHEN MIN. R.F.=1)  AT K=   1, I=   5, J=   5


     1 CALLS TO GCG PACKAGE FOR TRANSPORT TIME STEP   1 IN FLOW TIME STEP  43 STRESS PERIOD   3
     2 TOTAL ITERATIONS
  MAXIMUM CONCENTRATION CHANGES FOR EACH ITERATION:
  MAX. CHANGE LAYER,ROW,COL MAX. CHANGE LAYER,ROW,COL MAX. CHANGE LAYER,ROW,COL MAX. CHANGE LAYER,ROW,COL MAX. CHANGE LAYER,ROW,COL
 ------------------------------------------------------------------------------------------------------------------------------------
   0.5567E-02 (  1,  5,  5)  0.2910E-10 (  1,  6,  4)


                                          ================================================
                                                         TIME STEP NO.  044
                                          ================================================

 FROM TIME =   144.00     TO    145.00    


                    "THKSAT          " FLOW TERMS FOR TIME STEP 44, STRESS PERIOD  3 READ UNFORMATTED ON UNIT 10
                    --------------------------------------------------------------------------------------------

                    "QXX             " FLOW TERMS FOR TIME STEP 44, STRESS PERIOD  3 READ UNFORMATTED ON UNIT 10
                    --------------------------------------------------------------------------------------------

                    "QYY             " FLOW TERMS FOR TIME STEP 44, STRESS PERIOD  3 READ UNFORMATTED ON UNIT 10
                    --------------------------------------------------------------------------------------------

                    "QZZ             " FLOW TERMS FOR TIME STEP 44, STRESS PERIOD  3 READ UNFORMATTED ON UNIT 10
                    --------------------------------------------------------------------------------------------

                    "STO             " FLOW TERMS FOR TIME STEP 44, STRESS PERIOD  3 READ UNFORMATTED ON UNIT 10
                    --------------------------------------------------------------------------------------------

 MAXIMUM STEPSIZE DURING WHICH ANY PARTICLE CANNOT MOVE MORE THAN ONE CELL
 =  422.2    (WHEN MIN. R.F.=1)  AT K=   2, I=   5, J=   5

 MAXIMUM STEPSIZE WHICH MEETS STABILITY CRITERION OF THE ADVECTION TERM
 (FOR PURE FINITE-DIFFERENCE OPTION, MIXELM=0) 
 =  135.3    (WHEN MIN. R.F.=1)  AT K=   2, I=   5, J=   5

                    "CNH             " FLOW TERMS FOR TIME STEP 44, STRESS PERIOD  3 READ UNFORMATTED ON UNIT 10
                    --------------------------------------------------------------------------------------------

                    "WEL             " FLOW TERMS FOR TIME STEP 44, STRESS PERIOD  3 READ UNFORMATTED ON UNIT 10
                    --------------------------------------------------------------------------------------------

                    "GHB             " FLOW TERMS FOR TIME STEP 44, STRESS PERIOD  3 READ UNFORMATTED ON UNIT 10
                    --------------------------------------------------------------------------------------------


 TOTAL NUMBER OF POINT SOURCES/SINKS PRESENT IN THE FLOW MODEL =    41

 MAXIMUM STEPSIZE WHICH MEETS STABILITY CRITERION OF THE SINK & SOURCE TERM
 =  90.00    (WHEN MIN. R.F.=1)  AT K=   1, I=   5, J=   5

 MAXIMUM STEPSIZE WHICH MEETS STABILITY CRITERION OF THE DISPERSION TERM
 =  267.5    (WHEN MIN. R.F.=1)  AT K=   1, I=   5, J=   5


     1 CALLS TO GCG PACKAGE FOR TRANSPORT TIME STEP   1 IN FLOW TIME STEP  44 STRESS PERIOD   3
     2 TOTAL ITERATIONS
  MAXIMUM CONCENTRATION CHANGES FOR EACH ITERATION:
  MAX. CHANGE LAYER,ROW,COL MAX. CHANGE LAYER,ROW,COL MAX. CHANGE LAYER,ROW,COL MAX. CHANGE LAYER,ROW,COL MAX. CHANGE LAYER,ROW,COL
 ------------------------------------------------------------------------------------------------------------------------------------
   0.5478E-02 (  1,  5,  5)  0.2910E-10 (  1,  6,  4)


                                          ================================================
                                                         TIME STEP NO.  045
                                          ================================================

 FROM TIME =   145.00     TO    146.00    


                    "THKSAT          " FLOW TERMS FOR TIME STEP 45, STRESS PERIOD  3 READ UNFORMATTED ON UNIT 10
                    --------------------------------------------------------------------------------------------

                    "QXX             " FLOW TERMS FOR TIME STEP 45, STRESS PERIOD  3 READ UNFORMATTED ON UNIT 10
                    --------------------------------------------------------------------------------------------

                    "QYY             " FLOW TERMS FOR TIME STEP 45, STRESS PERIOD  3 READ UNFORMATTED ON UNIT 10
                    --------------------------------------------------------------------------------------------

                    "QZZ             " FLOW TERMS FOR TIME STEP 45, STRESS PERIOD  3 READ UNFORMATTED ON UNIT 10
                    --------------------------------------------------------------------------------------------

                    "STO             " FLOW TERMS FOR TIME STEP 45, STRESS PERIOD  3 READ UNFORMATTED ON UNIT 10
                    --------------------------------------------------------------------------------------------

 MAXIMUM STEPSIZE DURING WHICH ANY PARTICLE CANNOT MOVE MORE THAN ONE CELL
 =  422.2    (WHEN MIN. R.F.=1)  AT K=   2, I=   5, J=   5

 MAXIMUM STEPSIZE WHICH MEETS STABILITY CRITERION OF THE ADVECTION TERM
 (FOR PURE FINITE-DIFFERENCE OPTION, MIXELM=0) 
 =  135.3    (WHEN MIN. R.F.=1)  AT K=   2, I=   5, J=   5

                    "CNH             " FLOW TERMS FOR TIME STEP 45, STRESS PERIOD  3 READ UNFORMATTED ON UNIT 10
                    --------------------------------------------------------------------------------------------

                    "WEL             " FLOW TERMS FOR TIME STEP 45, STRESS PERIOD  3 READ UNFORMATTED ON UNIT 10
                    --------------------------------------------------------------------------------------------

                    "GHB             " FLOW TERMS FOR TIME STEP 45, STRESS PERIOD  3 READ UNFORMATTED ON UNIT 10
                    --------------------------------------------------------------------------------------------


 TOTAL NUMBER OF POINT SOURCES/SINKS PRESENT IN THE FLOW MODEL =    41

 MAXIMUM STEPSIZE WHICH MEETS STABILITY CRITERION OF THE SINK & SOURCE TERM
 =  90.00    (WHEN MIN. R.F.=1)  AT K=   1, I=   5, J=   5

 MAXIMUM STEPSIZE WHICH MEETS STABILITY CRITERION OF THE DISPERSION TERM
 =  267.5    (WHEN MIN. R.F.=1)  AT K=   1, I=   5, J=   5


     1 CALLS TO GCG PACKAGE FOR TRANSPORT TIME STEP   1 IN FLOW TIME STEP  45 STRESS PERIOD   3
     2 TOTAL ITERATIONS
  MAXIMUM CONCENTRATION CHANGES FOR EACH ITERATION:
  MAX. CHANGE LAYER,ROW,COL MAX. CHANGE LAYER,ROW,COL MAX. CHANGE LAYER,ROW,COL MAX. CHANGE LAYER,ROW,COL MAX. CHANGE LAYER,ROW,COL
 ------------------------------------------------------------------------------------------------------------------------------------
   0.5379E-02 (  1,  5,  5)  0.2910E-10 (  1,  6,  4)


                                          ================================================
                                                         TIME STEP NO.  046
                                          ================================================

 FROM TIME =   146.00     TO    147.00    


                    "THKSAT          " FLOW TERMS FOR TIME STEP 46, STRESS PERIOD  3 READ UNFORMATTED ON UNIT 10
                    --------------------------------------------------------------------------------------------

                    "QXX             " FLOW TERMS FOR TIME STEP 46, STRESS PERIOD  3 READ UNFORMATTED ON UNIT 10
                    --------------------------------------------------------------------------------------------

                    "QYY             " FLOW TERMS FOR TIME STEP 46, STRESS PERIOD  3 READ UNFORMATTED ON UNIT 10
                    --------------------------------------------------------------------------------------------

                    "QZZ             " FLOW TERMS FOR TIME STEP 46, STRESS PERIOD  3 READ UNFORMATTED ON UNIT 10
                    --------------------------------------------------------------------------------------------

                    "STO             " FLOW TERMS FOR TIME STEP 46, STRESS PERIOD  3 READ UNFORMATTED ON UNIT 10
                    --------------------------------------------------------------------------------------------

 MAXIMUM STEPSIZE DURING WHICH ANY PARTICLE CANNOT MOVE MORE THAN ONE CELL
 =  422.2    (WHEN MIN. R.F.=1)  AT K=   2, I=   5, J=   5

 MAXIMUM STEPSIZE WHICH MEETS STABILITY CRITERION OF THE ADVECTION TERM
 (FOR PURE FINITE-DIFFERENCE OPTION, MIXELM=0) 
 =  135.3    (WHEN MIN. R.F.=1)  AT K=   2, I=   5, J=   5

                    "CNH             " FLOW TERMS FOR TIME STEP 46, STRESS PERIOD  3 READ UNFORMATTED ON UNIT 10
                    --------------------------------------------------------------------------------------------

                    "WEL             " FLOW TERMS FOR TIME STEP 46, STRESS PERIOD  3 READ UNFORMATTED ON UNIT 10
                    --------------------------------------------------------------------------------------------

                    "GHB             " FLOW TERMS FOR TIME STEP 46, STRESS PERIOD  3 READ UNFORMATTED ON UNIT 10
                    --------------------------------------------------------------------------------------------


 TOTAL NUMBER OF POINT SOURCES/SINKS PRESENT IN THE FLOW MODEL =    41

 MAXIMUM STEPSIZE WHICH MEETS STABILITY CRITERION OF THE SINK & SOURCE TERM
 =  90.00    (WHEN MIN. R.F.=1)  AT K=   1, I=   5, J=   5

 MAXIMUM STEPSIZE WHICH MEETS STABILITY CRITERION OF THE DISPERSION TERM
 =  267.5    (WHEN MIN. R.F.=1)  AT K=   1, I=   5, J=   5


     1 CALLS TO GCG PACKAGE FOR TRANSPORT TIME STEP   1 IN FLOW TIME STEP  46 STRESS PERIOD   3
     2 TOTAL ITERATIONS
  MAXIMUM CONCENTRATION CHANGES FOR EACH ITERATION:
  MAX. CHANGE LAYER,ROW,COL MAX. CHANGE LAYER,ROW,COL MAX. CHANGE LAYER,ROW,COL MAX. CHANGE LAYER,ROW,COL MAX. CHANGE LAYER,ROW,COL
 ------------------------------------------------------------------------------------------------------------------------------------
   0.5282E-02 (  1,  5,  5)  0.2910E-10 (  1,  6,  4)


                                          ================================================
                                                         TIME STEP NO.  047
                                          ================================================

 FROM TIME =   147.00     TO    148.00    


                    "THKSAT          " FLOW TERMS FOR TIME STEP 47, STRESS PERIOD  3 READ UNFORMATTED ON UNIT 10
                    --------------------------------------------------------------------------------------------

                    "QXX             " FLOW TERMS FOR TIME STEP 47, STRESS PERIOD  3 READ UNFORMATTED ON UNIT 10
                    --------------------------------------------------------------------------------------------

                    "QYY             " FLOW TERMS FOR TIME STEP 47, STRESS PERIOD  3 READ UNFORMATTED ON UNIT 10
                    --------------------------------------------------------------------------------------------

                    "QZZ             " FLOW TERMS FOR TIME STEP 47, STRESS PERIOD  3 READ UNFORMATTED ON UNIT 10
                    --------------------------------------------------------------------------------------------

                    "STO             " FLOW TERMS FOR TIME STEP 47, STRESS PERIOD  3 READ UNFORMATTED ON UNIT 10
                    --------------------------------------------------------------------------------------------

 MAXIMUM STEPSIZE DURING WHICH ANY PARTICLE CANNOT MOVE MORE THAN ONE CELL
 =  422.2    (WHEN MIN. R.F.=1)  AT K=   2, I=   5, J=   5

 MAXIMUM STEPSIZE WHICH MEETS STABILITY CRITERION OF THE ADVECTION TERM
 (FOR PURE FINITE-DIFFERENCE OPTION, MIXELM=0) 
 =  135.3    (WHEN MIN. R.F.=1)  AT K=   2, I=   5, J=   5

                    "CNH             " FLOW TERMS FOR TIME STEP 47, STRESS PERIOD  3 READ UNFORMATTED ON UNIT 10
                    --------------------------------------------------------------------------------------------

                    "WEL             " FLOW TERMS FOR TIME STEP 47, STRESS PERIOD  3 READ UNFORMATTED ON UNIT 10
                    --------------------------------------------------------------------------------------------

                    "GHB             " FLOW TERMS FOR TIME STEP 47, STRESS PERIOD  3 READ UNFORMATTED ON UNIT 10
                    --------------------------------------------------------------------------------------------


 TOTAL NUMBER OF POINT SOURCES/SINKS PRESENT IN THE FLOW MODEL =    41

 MAXIMUM STEPSIZE WHICH MEETS STABILITY CRITERION OF THE SINK & SOURCE TERM
 =  90.00    (WHEN MIN. R.F.=1)  AT K=   1, I=   5, J=   5

 MAXIMUM STEPSIZE WHICH MEETS STABILITY CRITERION OF THE DISPERSION TERM
 =  267.5    (WHEN MIN. R.F.=1)  AT K=   1, I=   5, J=   5


     1 CALLS TO GCG PACKAGE FOR TRANSPORT TIME STEP   1 IN FLOW TIME STEP  47 STRESS PERIOD   3
     2 TOTAL ITERATIONS
  MAXIMUM CONCENTRATION CHANGES FOR EACH ITERATION:
  MAX. CHANGE LAYER,ROW,COL MAX. CHANGE LAYER,ROW,COL MAX. CHANGE LAYER,ROW,COL MAX. CHANGE LAYER,ROW,COL MAX. CHANGE LAYER,ROW,COL
 ------------------------------------------------------------------------------------------------------------------------------------
   0.5187E-02 (  1,  5,  5)  0.2910E-10 (  1,  6,  4)


                                          ================================================
                                                         TIME STEP NO.  048
                                          ================================================

 FROM TIME =   148.00     TO    149.00    


                    "THKSAT          " FLOW TERMS FOR TIME STEP 48, STRESS PERIOD  3 READ UNFORMATTED ON UNIT 10
                    --------------------------------------------------------------------------------------------

                    "QXX             " FLOW TERMS FOR TIME STEP 48, STRESS PERIOD  3 READ UNFORMATTED ON UNIT 10
                    --------------------------------------------------------------------------------------------

                    "QYY             " FLOW TERMS FOR TIME STEP 48, STRESS PERIOD  3 READ UNFORMATTED ON UNIT 10
                    --------------------------------------------------------------------------------------------

                    "QZZ             " FLOW TERMS FOR TIME STEP 48, STRESS PERIOD  3 READ UNFORMATTED ON UNIT 10
                    --------------------------------------------------------------------------------------------

                    "STO             " FLOW TERMS FOR TIME STEP 48, STRESS PERIOD  3 READ UNFORMATTED ON UNIT 10
                    --------------------------------------------------------------------------------------------

 MAXIMUM STEPSIZE DURING WHICH ANY PARTICLE CANNOT MOVE MORE THAN ONE CELL
 =  422.2    (WHEN MIN. R.F.=1)  AT K=   2, I=   5, J=   5

 MAXIMUM STEPSIZE WHICH MEETS STABILITY CRITERION OF THE ADVECTION TERM
 (FOR PURE FINITE-DIFFERENCE OPTION, MIXELM=0) 
 =  135.3    (WHEN MIN. R.F.=1)  AT K=   2, I=   5, J=   5

                    "CNH             " FLOW TERMS FOR TIME STEP 48, STRESS PERIOD  3 READ UNFORMATTED ON UNIT 10
                    --------------------------------------------------------------------------------------------

                    "WEL             " FLOW TERMS FOR TIME STEP 48, STRESS PERIOD  3 READ UNFORMATTED ON UNIT 10
                    --------------------------------------------------------------------------------------------

                    "GHB             " FLOW TERMS FOR TIME STEP 48, STRESS PERIOD  3 READ UNFORMATTED ON UNIT 10
                    --------------------------------------------------------------------------------------------


 TOTAL NUMBER OF POINT SOURCES/SINKS PRESENT IN THE FLOW MODEL =    41

 MAXIMUM STEPSIZE WHICH MEETS STABILITY CRITERION OF THE SINK & SOURCE TERM
 =  90.00    (WHEN MIN. R.F.=1)  AT K=   1, I=   5, J=   5

 MAXIMUM STEPSIZE WHICH MEETS STABILITY CRITERION OF THE DISPERSION TERM
 =  267.5    (WHEN MIN. R.F.=1)  AT K=   1, I=   5, J=   5


     1 CALLS TO GCG PACKAGE FOR TRANSPORT TIME STEP   1 IN FLOW TIME STEP  48 STRESS PERIOD   3
     2 TOTAL ITERATIONS
  MAXIMUM CONCENTRATION CHANGES FOR EACH ITERATION:
  MAX. CHANGE LAYER,ROW,COL MAX. CHANGE LAYER,ROW,COL MAX. CHANGE LAYER,ROW,COL MAX. CHANGE LAYER,ROW,COL MAX. CHANGE LAYER,ROW,COL
 ------------------------------------------------------------------------------------------------------------------------------------
   0.5094E-02 (  1,  5,  5)  0.2910E-10 (  1,  6,  4)


                                          ================================================
                                                         TIME STEP NO.  049
                                          ================================================

 FROM TIME =   149.00     TO    150.00    


                    "THKSAT          " FLOW TERMS FOR TIME STEP 49, STRESS PERIOD  3 READ UNFORMATTED ON UNIT 10
                    --------------------------------------------------------------------------------------------

                    "QXX             " FLOW TERMS FOR TIME STEP 49, STRESS PERIOD  3 READ UNFORMATTED ON UNIT 10
                    --------------------------------------------------------------------------------------------

                    "QYY             " FLOW TERMS FOR TIME STEP 49, STRESS PERIOD  3 READ UNFORMATTED ON UNIT 10
                    --------------------------------------------------------------------------------------------

                    "QZZ             " FLOW TERMS FOR TIME STEP 49, STRESS PERIOD  3 READ UNFORMATTED ON UNIT 10
                    --------------------------------------------------------------------------------------------

                    "STO             " FLOW TERMS FOR TIME STEP 49, STRESS PERIOD  3 READ UNFORMATTED ON UNIT 10
                    --------------------------------------------------------------------------------------------

 MAXIMUM STEPSIZE DURING WHICH ANY PARTICLE CANNOT MOVE MORE THAN ONE CELL
 =  422.2    (WHEN MIN. R.F.=1)  AT K=   2, I=   5, J=   5

 MAXIMUM STEPSIZE WHICH MEETS STABILITY CRITERION OF THE ADVECTION TERM
 (FOR PURE FINITE-DIFFERENCE OPTION, MIXELM=0) 
 =  135.3    (WHEN MIN. R.F.=1)  AT K=   2, I=   5, J=   5

                    "CNH             " FLOW TERMS FOR TIME STEP 49, STRESS PERIOD  3 READ UNFORMATTED ON UNIT 10
                    --------------------------------------------------------------------------------------------

                    "WEL             " FLOW TERMS FOR TIME STEP 49, STRESS PERIOD  3 READ UNFORMATTED ON UNIT 10
                    --------------------------------------------------------------------------------------------

                    "GHB             " FLOW TERMS FOR TIME STEP 49, STRESS PERIOD  3 READ UNFORMATTED ON UNIT 10
                    --------------------------------------------------------------------------------------------


 TOTAL NUMBER OF POINT SOURCES/SINKS PRESENT IN THE FLOW MODEL =    41

 MAXIMUM STEPSIZE WHICH MEETS STABILITY CRITERION OF THE SINK & SOURCE TERM
 =  90.00    (WHEN MIN. R.F.=1)  AT K=   1, I=   5, J=   5

 MAXIMUM STEPSIZE WHICH MEETS STABILITY CRITERION OF THE DISPERSION TERM
 =  267.5    (WHEN MIN. R.F.=1)  AT K=   1, I=   5, J=   5


     1 CALLS TO GCG PACKAGE FOR TRANSPORT TIME STEP   1 IN FLOW TIME STEP  49 STRESS PERIOD   3
     2 TOTAL ITERATIONS
  MAXIMUM CONCENTRATION CHANGES FOR EACH ITERATION:
  MAX. CHANGE LAYER,ROW,COL MAX. CHANGE LAYER,ROW,COL MAX. CHANGE LAYER,ROW,COL MAX. CHANGE LAYER,ROW,COL MAX. CHANGE LAYER,ROW,COL
 ------------------------------------------------------------------------------------------------------------------------------------
   0.5003E-02 (  1,  5,  5)  0.2910E-10 (  1,  6,  4)


                                          ================================================
                                                         TIME STEP NO.  050
                                          ================================================

 FROM TIME =   150.00     TO    151.00    


                    "THKSAT          " FLOW TERMS FOR TIME STEP 50, STRESS PERIOD  3 READ UNFORMATTED ON UNIT 10
                    --------------------------------------------------------------------------------------------

                    "QXX             " FLOW TERMS FOR TIME STEP 50, STRESS PERIOD  3 READ UNFORMATTED ON UNIT 10
                    --------------------------------------------------------------------------------------------

                    "QYY             " FLOW TERMS FOR TIME STEP 50, STRESS PERIOD  3 READ UNFORMATTED ON UNIT 10
                    --------------------------------------------------------------------------------------------

                    "QZZ             " FLOW TERMS FOR TIME STEP 50, STRESS PERIOD  3 READ UNFORMATTED ON UNIT 10
                    --------------------------------------------------------------------------------------------

                    "STO             " FLOW TERMS FOR TIME STEP 50, STRESS PERIOD  3 READ UNFORMATTED ON UNIT 10
                    --------------------------------------------------------------------------------------------

 MAXIMUM STEPSIZE DURING WHICH ANY PARTICLE CANNOT MOVE MORE THAN ONE CELL
 =  422.2    (WHEN MIN. R.F.=1)  AT K=   2, I=   5, J=   5

 MAXIMUM STEPSIZE WHICH MEETS STABILITY CRITERION OF THE ADVECTION TERM
 (FOR PURE FINITE-DIFFERENCE OPTION, MIXELM=0) 
 =  135.2    (WHEN MIN. R.F.=1)  AT K=   2, I=   5, J=   5

                    "CNH             " FLOW TERMS FOR TIME STEP 50, STRESS PERIOD  3 READ UNFORMATTED ON UNIT 10
                    --------------------------------------------------------------------------------------------

                    "WEL             " FLOW TERMS FOR TIME STEP 50, STRESS PERIOD  3 READ UNFORMATTED ON UNIT 10
                    --------------------------------------------------------------------------------------------

                    "GHB             " FLOW TERMS FOR TIME STEP 50, STRESS PERIOD  3 READ UNFORMATTED ON UNIT 10
                    --------------------------------------------------------------------------------------------


 TOTAL NUMBER OF POINT SOURCES/SINKS PRESENT IN THE FLOW MODEL =    41

 MAXIMUM STEPSIZE WHICH MEETS STABILITY CRITERION OF THE SINK & SOURCE TERM
 =  90.00    (WHEN MIN. R.F.=1)  AT K=   1, I=   5, J=   5

 MAXIMUM STEPSIZE WHICH MEETS STABILITY CRITERION OF THE DISPERSION TERM
 =  267.5    (WHEN MIN. R.F.=1)  AT K=   1, I=   5, J=   5


     1 CALLS TO GCG PACKAGE FOR TRANSPORT TIME STEP   1 IN FLOW TIME STEP  50 STRESS PERIOD   3
     2 TOTAL ITERATIONS
  MAXIMUM CONCENTRATION CHANGES FOR EACH ITERATION:
  MAX. CHANGE LAYER,ROW,COL MAX. CHANGE LAYER,ROW,COL MAX. CHANGE LAYER,ROW,COL MAX. CHANGE LAYER,ROW,COL MAX. CHANGE LAYER,ROW,COL
 ------------------------------------------------------------------------------------------------------------------------------------
   0.4914E-02 (  1,  5,  5)  0.7276E-11 (  2,  4,  6)


                                          ================================================
                                                         TIME STEP NO.  051
                                          ================================================

 FROM TIME =   151.00     TO    152.00    


                    "THKSAT          " FLOW TERMS FOR TIME STEP 51, STRESS PERIOD  3 READ UNFORMATTED ON UNIT 10
                    --------------------------------------------------------------------------------------------

                    "QXX             " FLOW TERMS FOR TIME STEP 51, STRESS PERIOD  3 READ UNFORMATTED ON UNIT 10
                    --------------------------------------------------------------------------------------------

                    "QYY             " FLOW TERMS FOR TIME STEP 51, STRESS PERIOD  3 READ UNFORMATTED ON UNIT 10
                    --------------------------------------------------------------------------------------------

                    "QZZ             " FLOW TERMS FOR TIME STEP 51, STRESS PERIOD  3 READ UNFORMATTED ON UNIT 10
                    --------------------------------------------------------------------------------------------

                    "STO             " FLOW TERMS FOR TIME STEP 51, STRESS PERIOD  3 READ UNFORMATTED ON UNIT 10
                    --------------------------------------------------------------------------------------------

 MAXIMUM STEPSIZE DURING WHICH ANY PARTICLE CANNOT MOVE MORE THAN ONE CELL
 =  422.2    (WHEN MIN. R.F.=1)  AT K=   2, I=   5, J=   5

 MAXIMUM STEPSIZE WHICH MEETS STABILITY CRITERION OF THE ADVECTION TERM
 (FOR PURE FINITE-DIFFERENCE OPTION, MIXELM=0) 
 =  135.2    (WHEN MIN. R.F.=1)  AT K=   2, I=   5, J=   5

                    "CNH             " FLOW TERMS FOR TIME STEP 51, STRESS PERIOD  3 READ UNFORMATTED ON UNIT 10
                    --------------------------------------------------------------------------------------------

                    "WEL             " FLOW TERMS FOR TIME STEP 51, STRESS PERIOD  3 READ UNFORMATTED ON UNIT 10
                    --------------------------------------------------------------------------------------------

                    "GHB             " FLOW TERMS FOR TIME STEP 51, STRESS PERIOD  3 READ UNFORMATTED ON UNIT 10
                    --------------------------------------------------------------------------------------------


 TOTAL NUMBER OF POINT SOURCES/SINKS PRESENT IN THE FLOW MODEL =    41

 MAXIMUM STEPSIZE WHICH MEETS STABILITY CRITERION OF THE SINK & SOURCE TERM
 =  90.00    (WHEN MIN. R.F.=1)  AT K=   1, I=   5, J=   5

 MAXIMUM STEPSIZE WHICH MEETS STABILITY CRITERION OF THE DISPERSION TERM
 =  267.5    (WHEN MIN. R.F.=1)  AT K=   1, I=   5, J=   5


     1 CALLS TO GCG PACKAGE FOR TRANSPORT TIME STEP   1 IN FLOW TIME STEP  51 STRESS PERIOD   3
     2 TOTAL ITERATIONS
  MAXIMUM CONCENTRATION CHANGES FOR EACH ITERATION:
  MAX. CHANGE LAYER,ROW,COL MAX. CHANGE LAYER,ROW,COL MAX. CHANGE LAYER,ROW,COL MAX. CHANGE LAYER,ROW,COL MAX. CHANGE LAYER,ROW,COL
 ------------------------------------------------------------------------------------------------------------------------------------
   0.4827E-02 (  1,  5,  5)  0.7276E-11 (  2,  4,  6)


                                          ================================================
                                                         TIME STEP NO.  052
                                          ================================================

 FROM TIME =   152.00     TO    153.00    


                    "THKSAT          " FLOW TERMS FOR TIME STEP 52, STRESS PERIOD  3 READ UNFORMATTED ON UNIT 10
                    --------------------------------------------------------------------------------------------

                    "QXX             " FLOW TERMS FOR TIME STEP 52, STRESS PERIOD  3 READ UNFORMATTED ON UNIT 10
                    --------------------------------------------------------------------------------------------

                    "QYY             " FLOW TERMS FOR TIME STEP 52, STRESS PERIOD  3 READ UNFORMATTED ON UNIT 10
                    --------------------------------------------------------------------------------------------

                    "QZZ             " FLOW TERMS FOR TIME STEP 52, STRESS PERIOD  3 READ UNFORMATTED ON UNIT 10
                    --------------------------------------------------------------------------------------------

                    "STO             " FLOW TERMS FOR TIME STEP 52, STRESS PERIOD  3 READ UNFORMATTED ON UNIT 10
                    --------------------------------------------------------------------------------------------

 MAXIMUM STEPSIZE DURING WHICH ANY PARTICLE CANNOT MOVE MORE THAN ONE CELL
 =  422.2    (WHEN MIN. R.F.=1)  AT K=   2, I=   5, J=   5

 MAXIMUM STEPSIZE WHICH MEETS STABILITY CRITERION OF THE ADVECTION TERM
 (FOR PURE FINITE-DIFFERENCE OPTION, MIXELM=0) 
 =  135.2    (WHEN MIN. R.F.=1)  AT K=   2, I=   5, J=   5

                    "CNH             " FLOW TERMS FOR TIME STEP 52, STRESS PERIOD  3 READ UNFORMATTED ON UNIT 10
                    --------------------------------------------------------------------------------------------

                    "WEL             " FLOW TERMS FOR TIME STEP 52, STRESS PERIOD  3 READ UNFORMATTED ON UNIT 10
                    --------------------------------------------------------------------------------------------

                    "GHB             " FLOW TERMS FOR TIME STEP 52, STRESS PERIOD  3 READ UNFORMATTED ON UNIT 10
                    --------------------------------------------------------------------------------------------


 TOTAL NUMBER OF POINT SOURCES/SINKS PRESENT IN THE FLOW MODEL =    41

 MAXIMUM STEPSIZE WHICH MEETS STABILITY CRITERION OF THE SINK & SOURCE TERM
 =  90.00    (WHEN MIN. R.F.=1)  AT K=   1, I=   5, J=   5

 MAXIMUM STEPSIZE WHICH MEETS STABILITY CRITERION OF THE DISPERSION TERM
 =  267.5    (WHEN MIN. R.F.=1)  AT K=   1, I=   5, J=   5


     1 CALLS TO GCG PACKAGE FOR TRANSPORT TIME STEP   1 IN FLOW TIME STEP  52 STRESS PERIOD   3
     2 TOTAL ITERATIONS
  MAXIMUM CONCENTRATION CHANGES FOR EACH ITERATION:
  MAX. CHANGE LAYER,ROW,COL MAX. CHANGE LAYER,ROW,COL MAX. CHANGE LAYER,ROW,COL MAX. CHANGE LAYER,ROW,COL MAX. CHANGE LAYER,ROW,COL
 ------------------------------------------------------------------------------------------------------------------------------------
   0.4743E-02 (  1,  5,  5)  0.7276E-11 (  2,  4,  6)


                                          ================================================
                                                         TIME STEP NO.  053
                                          ================================================

 FROM TIME =   153.00     TO    154.00    


                    "THKSAT          " FLOW TERMS FOR TIME STEP 53, STRESS PERIOD  3 READ UNFORMATTED ON UNIT 10
                    --------------------------------------------------------------------------------------------

                    "QXX             " FLOW TERMS FOR TIME STEP 53, STRESS PERIOD  3 READ UNFORMATTED ON UNIT 10
                    --------------------------------------------------------------------------------------------

                    "QYY             " FLOW TERMS FOR TIME STEP 53, STRESS PERIOD  3 READ UNFORMATTED ON UNIT 10
                    --------------------------------------------------------------------------------------------

                    "QZZ             " FLOW TERMS FOR TIME STEP 53, STRESS PERIOD  3 READ UNFORMATTED ON UNIT 10
                    --------------------------------------------------------------------------------------------

                    "STO             " FLOW TERMS FOR TIME STEP 53, STRESS PERIOD  3 READ UNFORMATTED ON UNIT 10
                    --------------------------------------------------------------------------------------------

 MAXIMUM STEPSIZE DURING WHICH ANY PARTICLE CANNOT MOVE MORE THAN ONE CELL
 =  422.2    (WHEN MIN. R.F.=1)  AT K=   2, I=   5, J=   5

 MAXIMUM STEPSIZE WHICH MEETS STABILITY CRITERION OF THE ADVECTION TERM
 (FOR PURE FINITE-DIFFERENCE OPTION, MIXELM=0) 
 =  135.2    (WHEN MIN. R.F.=1)  AT K=   2, I=   5, J=   5

                    "CNH             " FLOW TERMS FOR TIME STEP 53, STRESS PERIOD  3 READ UNFORMATTED ON UNIT 10
                    --------------------------------------------------------------------------------------------

                    "WEL             " FLOW TERMS FOR TIME STEP 53, STRESS PERIOD  3 READ UNFORMATTED ON UNIT 10
                    --------------------------------------------------------------------------------------------

                    "GHB             " FLOW TERMS FOR TIME STEP 53, STRESS PERIOD  3 READ UNFORMATTED ON UNIT 10
                    --------------------------------------------------------------------------------------------


 TOTAL NUMBER OF POINT SOURCES/SINKS PRESENT IN THE FLOW MODEL =    41

 MAXIMUM STEPSIZE WHICH MEETS STABILITY CRITERION OF THE SINK & SOURCE TERM
 =  90.00    (WHEN MIN. R.F.=1)  AT K=   1, I=   5, J=   5

 MAXIMUM STEPSIZE WHICH MEETS STABILITY CRITERION OF THE DISPERSION TERM
 =  267.5    (WHEN MIN. R.F.=1)  AT K=   1, I=   5, J=   5


     1 CALLS TO GCG PACKAGE FOR TRANSPORT TIME STEP   1 IN FLOW TIME STEP  53 STRESS PERIOD   3
     2 TOTAL ITERATIONS
  MAXIMUM CONCENTRATION CHANGES FOR EACH ITERATION:
  MAX. CHANGE LAYER,ROW,COL MAX. CHANGE LAYER,ROW,COL MAX. CHANGE LAYER,ROW,COL MAX. CHANGE LAYER,ROW,COL MAX. CHANGE LAYER,ROW,COL
 ------------------------------------------------------------------------------------------------------------------------------------
   0.4660E-02 (  1,  5,  5)  0.7276E-11 (  2,  4,  6)


                                          ================================================
                                                         TIME STEP NO.  054
                                          ================================================

 FROM TIME =   154.00     TO    155.00    


                    "THKSAT          " FLOW TERMS FOR TIME STEP 54, STRESS PERIOD  3 READ UNFORMATTED ON UNIT 10
                    --------------------------------------------------------------------------------------------

                    "QXX             " FLOW TERMS FOR TIME STEP 54, STRESS PERIOD  3 READ UNFORMATTED ON UNIT 10
                    --------------------------------------------------------------------------------------------

                    "QYY             " FLOW TERMS FOR TIME STEP 54, STRESS PERIOD  3 READ UNFORMATTED ON UNIT 10
                    --------------------------------------------------------------------------------------------

                    "QZZ             " FLOW TERMS FOR TIME STEP 54, STRESS PERIOD  3 READ UNFORMATTED ON UNIT 10
                    --------------------------------------------------------------------------------------------

                    "STO             " FLOW TERMS FOR TIME STEP 54, STRESS PERIOD  3 READ UNFORMATTED ON UNIT 10
                    --------------------------------------------------------------------------------------------

 MAXIMUM STEPSIZE DURING WHICH ANY PARTICLE CANNOT MOVE MORE THAN ONE CELL
 =  422.2    (WHEN MIN. R.F.=1)  AT K=   2, I=   5, J=   5

 MAXIMUM STEPSIZE WHICH MEETS STABILITY CRITERION OF THE ADVECTION TERM
 (FOR PURE FINITE-DIFFERENCE OPTION, MIXELM=0) 
 =  135.2    (WHEN MIN. R.F.=1)  AT K=   2, I=   5, J=   5

                    "CNH             " FLOW TERMS FOR TIME STEP 54, STRESS PERIOD  3 READ UNFORMATTED ON UNIT 10
                    --------------------------------------------------------------------------------------------

                    "WEL             " FLOW TERMS FOR TIME STEP 54, STRESS PERIOD  3 READ UNFORMATTED ON UNIT 10
                    --------------------------------------------------------------------------------------------

                    "GHB             " FLOW TERMS FOR TIME STEP 54, STRESS PERIOD  3 READ UNFORMATTED ON UNIT 10
                    --------------------------------------------------------------------------------------------


 TOTAL NUMBER OF POINT SOURCES/SINKS PRESENT IN THE FLOW MODEL =    41

 MAXIMUM STEPSIZE WHICH MEETS STABILITY CRITERION OF THE SINK & SOURCE TERM
 =  90.00    (WHEN MIN. R.F.=1)  AT K=   1, I=   5, J=   5

 MAXIMUM STEPSIZE WHICH MEETS STABILITY CRITERION OF THE DISPERSION TERM
 =  267.5    (WHEN MIN. R.F.=1)  AT K=   1, I=   5, J=   5


     1 CALLS TO GCG PACKAGE FOR TRANSPORT TIME STEP   1 IN FLOW TIME STEP  54 STRESS PERIOD   3
     2 TOTAL ITERATIONS
  MAXIMUM CONCENTRATION CHANGES FOR EACH ITERATION:
  MAX. CHANGE LAYER,ROW,COL MAX. CHANGE LAYER,ROW,COL MAX. CHANGE LAYER,ROW,COL MAX. CHANGE LAYER,ROW,COL MAX. CHANGE LAYER,ROW,COL
 ------------------------------------------------------------------------------------------------------------------------------------
   0.4579E-02 (  1,  5,  5)  0.7276E-11 (  2,  4,  6)


                                          ================================================
                                                         TIME STEP NO.  055
                                          ================================================

 FROM TIME =   155.00     TO    156.00    


                    "THKSAT          " FLOW TERMS FOR TIME STEP 55, STRESS PERIOD  3 READ UNFORMATTED ON UNIT 10
                    --------------------------------------------------------------------------------------------

                    "QXX             " FLOW TERMS FOR TIME STEP 55, STRESS PERIOD  3 READ UNFORMATTED ON UNIT 10
                    --------------------------------------------------------------------------------------------

                    "QYY             " FLOW TERMS FOR TIME STEP 55, STRESS PERIOD  3 READ UNFORMATTED ON UNIT 10
                    --------------------------------------------------------------------------------------------

                    "QZZ             " FLOW TERMS FOR TIME STEP 55, STRESS PERIOD  3 READ UNFORMATTED ON UNIT 10
                    --------------------------------------------------------------------------------------------

                    "STO             " FLOW TERMS FOR TIME STEP 55, STRESS PERIOD  3 READ UNFORMATTED ON UNIT 10
                    --------------------------------------------------------------------------------------------

 MAXIMUM STEPSIZE DURING WHICH ANY PARTICLE CANNOT MOVE MORE THAN ONE CELL
 =  422.2    (WHEN MIN. R.F.=1)  AT K=   2, I=   5, J=   5

 MAXIMUM STEPSIZE WHICH MEETS STABILITY CRITERION OF THE ADVECTION TERM
 (FOR PURE FINITE-DIFFERENCE OPTION, MIXELM=0) 
 =  135.2    (WHEN MIN. R.F.=1)  AT K=   2, I=   5, J=   5

                    "CNH             " FLOW TERMS FOR TIME STEP 55, STRESS PERIOD  3 READ UNFORMATTED ON UNIT 10
                    --------------------------------------------------------------------------------------------

                    "WEL             " FLOW TERMS FOR TIME STEP 55, STRESS PERIOD  3 READ UNFORMATTED ON UNIT 10
                    --------------------------------------------------------------------------------------------

                    "GHB             " FLOW TERMS FOR TIME STEP 55, STRESS PERIOD  3 READ UNFORMATTED ON UNIT 10
                    --------------------------------------------------------------------------------------------


 TOTAL NUMBER OF POINT SOURCES/SINKS PRESENT IN THE FLOW MODEL =    41

 MAXIMUM STEPSIZE WHICH MEETS STABILITY CRITERION OF THE SINK & SOURCE TERM
 =  90.00    (WHEN MIN. R.F.=1)  AT K=   1, I=   5, J=   5

 MAXIMUM STEPSIZE WHICH MEETS STABILITY CRITERION OF THE DISPERSION TERM
 =  267.5    (WHEN MIN. R.F.=1)  AT K=   1, I=   5, J=   5


     1 CALLS TO GCG PACKAGE FOR TRANSPORT TIME STEP   1 IN FLOW TIME STEP  55 STRESS PERIOD   3
     2 TOTAL ITERATIONS
  MAXIMUM CONCENTRATION CHANGES FOR EACH ITERATION:
  MAX. CHANGE LAYER,ROW,COL MAX. CHANGE LAYER,ROW,COL MAX. CHANGE LAYER,ROW,COL MAX. CHANGE LAYER,ROW,COL MAX. CHANGE LAYER,ROW,COL
 ------------------------------------------------------------------------------------------------------------------------------------
   0.4500E-02 (  1,  5,  5)  0.7276E-11 (  2,  4,  6)


                                          ================================================
                                                         TIME STEP NO.  056
                                          ================================================

 FROM TIME =   156.00     TO    157.00    


                    "THKSAT          " FLOW TERMS FOR TIME STEP 56, STRESS PERIOD  3 READ UNFORMATTED ON UNIT 10
                    --------------------------------------------------------------------------------------------

                    "QXX             " FLOW TERMS FOR TIME STEP 56, STRESS PERIOD  3 READ UNFORMATTED ON UNIT 10
                    --------------------------------------------------------------------------------------------

                    "QYY             " FLOW TERMS FOR TIME STEP 56, STRESS PERIOD  3 READ UNFORMATTED ON UNIT 10
                    --------------------------------------------------------------------------------------------

                    "QZZ             " FLOW TERMS FOR TIME STEP 56, STRESS PERIOD  3 READ UNFORMATTED ON UNIT 10
                    --------------------------------------------------------------------------------------------

                    "STO             " FLOW TERMS FOR TIME STEP 56, STRESS PERIOD  3 READ UNFORMATTED ON UNIT 10
                    --------------------------------------------------------------------------------------------

 MAXIMUM STEPSIZE DURING WHICH ANY PARTICLE CANNOT MOVE MORE THAN ONE CELL
 =  422.2    (WHEN MIN. R.F.=1)  AT K=   2, I=   5, J=   5

 MAXIMUM STEPSIZE WHICH MEETS STABILITY CRITERION OF THE ADVECTION TERM
 (FOR PURE FINITE-DIFFERENCE OPTION, MIXELM=0) 
 =  135.2    (WHEN MIN. R.F.=1)  AT K=   2, I=   5, J=   5

                    "CNH             " FLOW TERMS FOR TIME STEP 56, STRESS PERIOD  3 READ UNFORMATTED ON UNIT 10
                    --------------------------------------------------------------------------------------------

                    "WEL             " FLOW TERMS FOR TIME STEP 56, STRESS PERIOD  3 READ UNFORMATTED ON UNIT 10
                    --------------------------------------------------------------------------------------------

                    "GHB             " FLOW TERMS FOR TIME STEP 56, STRESS PERIOD  3 READ UNFORMATTED ON UNIT 10
                    --------------------------------------------------------------------------------------------


 TOTAL NUMBER OF POINT SOURCES/SINKS PRESENT IN THE FLOW MODEL =    41

 MAXIMUM STEPSIZE WHICH MEETS STABILITY CRITERION OF THE SINK & SOURCE TERM
 =  90.00    (WHEN MIN. R.F.=1)  AT K=   1, I=   5, J=   5

 MAXIMUM STEPSIZE WHICH MEETS STABILITY CRITERION OF THE DISPERSION TERM
 =  267.5    (WHEN MIN. R.F.=1)  AT K=   1, I=   5, J=   5


     1 CALLS TO GCG PACKAGE FOR TRANSPORT TIME STEP   1 IN FLOW TIME STEP  56 STRESS PERIOD   3
     2 TOTAL ITERATIONS
  MAXIMUM CONCENTRATION CHANGES FOR EACH ITERATION:
  MAX. CHANGE LAYER,ROW,COL MAX. CHANGE LAYER,ROW,COL MAX. CHANGE LAYER,ROW,COL MAX. CHANGE LAYER,ROW,COL MAX. CHANGE LAYER,ROW,COL
 ------------------------------------------------------------------------------------------------------------------------------------
   0.4423E-02 (  1,  5,  5)  0.7276E-11 (  2,  4,  6)


                                          ================================================
                                                         TIME STEP NO.  057
                                          ================================================

 FROM TIME =   157.00     TO    158.00    


                    "THKSAT          " FLOW TERMS FOR TIME STEP 57, STRESS PERIOD  3 READ UNFORMATTED ON UNIT 10
                    --------------------------------------------------------------------------------------------

                    "QXX             " FLOW TERMS FOR TIME STEP 57, STRESS PERIOD  3 READ UNFORMATTED ON UNIT 10
                    --------------------------------------------------------------------------------------------

                    "QYY             " FLOW TERMS FOR TIME STEP 57, STRESS PERIOD  3 READ UNFORMATTED ON UNIT 10
                    --------------------------------------------------------------------------------------------

                    "QZZ             " FLOW TERMS FOR TIME STEP 57, STRESS PERIOD  3 READ UNFORMATTED ON UNIT 10
                    --------------------------------------------------------------------------------------------

                    "STO             " FLOW TERMS FOR TIME STEP 57, STRESS PERIOD  3 READ UNFORMATTED ON UNIT 10
                    --------------------------------------------------------------------------------------------

 MAXIMUM STEPSIZE DURING WHICH ANY PARTICLE CANNOT MOVE MORE THAN ONE CELL
 =  422.2    (WHEN MIN. R.F.=1)  AT K=   2, I=   5, J=   5

 MAXIMUM STEPSIZE WHICH MEETS STABILITY CRITERION OF THE ADVECTION TERM
 (FOR PURE FINITE-DIFFERENCE OPTION, MIXELM=0) 
 =  135.2    (WHEN MIN. R.F.=1)  AT K=   2, I=   5, J=   5

                    "CNH             " FLOW TERMS FOR TIME STEP 57, STRESS PERIOD  3 READ UNFORMATTED ON UNIT 10
                    --------------------------------------------------------------------------------------------

                    "WEL             " FLOW TERMS FOR TIME STEP 57, STRESS PERIOD  3 READ UNFORMATTED ON UNIT 10
                    --------------------------------------------------------------------------------------------

                    "GHB             " FLOW TERMS FOR TIME STEP 57, STRESS PERIOD  3 READ UNFORMATTED ON UNIT 10
                    --------------------------------------------------------------------------------------------


 TOTAL NUMBER OF POINT SOURCES/SINKS PRESENT IN THE FLOW MODEL =    41

 MAXIMUM STEPSIZE WHICH MEETS STABILITY CRITERION OF THE SINK & SOURCE TERM
 =  90.00    (WHEN MIN. R.F.=1)  AT K=   1, I=   5, J=   5

 MAXIMUM STEPSIZE WHICH MEETS STABILITY CRITERION OF THE DISPERSION TERM
 =  267.5    (WHEN MIN. R.F.=1)  AT K=   1, I=   5, J=   5


     1 CALLS TO GCG PACKAGE FOR TRANSPORT TIME STEP   1 IN FLOW TIME STEP  57 STRESS PERIOD   3
     2 TOTAL ITERATIONS
  MAXIMUM CONCENTRATION CHANGES FOR EACH ITERATION:
  MAX. CHANGE LAYER,ROW,COL MAX. CHANGE LAYER,ROW,COL MAX. CHANGE LAYER,ROW,COL MAX. CHANGE LAYER,ROW,COL MAX. CHANGE LAYER,ROW,COL
 ------------------------------------------------------------------------------------------------------------------------------------
   0.4347E-02 (  1,  5,  5)  0.7276E-11 (  2,  4,  6)


                                          ================================================
                                                         TIME STEP NO.  058
                                          ================================================

 FROM TIME =   158.00     TO    159.00    


                    "THKSAT          " FLOW TERMS FOR TIME STEP 58, STRESS PERIOD  3 READ UNFORMATTED ON UNIT 10
                    --------------------------------------------------------------------------------------------

                    "QXX             " FLOW TERMS FOR TIME STEP 58, STRESS PERIOD  3 READ UNFORMATTED ON UNIT 10
                    --------------------------------------------------------------------------------------------

                    "QYY             " FLOW TERMS FOR TIME STEP 58, STRESS PERIOD  3 READ UNFORMATTED ON UNIT 10
                    --------------------------------------------------------------------------------------------

                    "QZZ             " FLOW TERMS FOR TIME STEP 58, STRESS PERIOD  3 READ UNFORMATTED ON UNIT 10
                    --------------------------------------------------------------------------------------------

                    "STO             " FLOW TERMS FOR TIME STEP 58, STRESS PERIOD  3 READ UNFORMATTED ON UNIT 10
                    --------------------------------------------------------------------------------------------

 MAXIMUM STEPSIZE DURING WHICH ANY PARTICLE CANNOT MOVE MORE THAN ONE CELL
 =  422.2    (WHEN MIN. R.F.=1)  AT K=   2, I=   5, J=   5

 MAXIMUM STEPSIZE WHICH MEETS STABILITY CRITERION OF THE ADVECTION TERM
 (FOR PURE FINITE-DIFFERENCE OPTION, MIXELM=0) 
 =  135.2    (WHEN MIN. R.F.=1)  AT K=   2, I=   5, J=   5

                    "CNH             " FLOW TERMS FOR TIME STEP 58, STRESS PERIOD  3 READ UNFORMATTED ON UNIT 10
                    --------------------------------------------------------------------------------------------

                    "WEL             " FLOW TERMS FOR TIME STEP 58, STRESS PERIOD  3 READ UNFORMATTED ON UNIT 10
                    --------------------------------------------------------------------------------------------

                    "GHB             " FLOW TERMS FOR TIME STEP 58, STRESS PERIOD  3 READ UNFORMATTED ON UNIT 10
                    --------------------------------------------------------------------------------------------


 TOTAL NUMBER OF POINT SOURCES/SINKS PRESENT IN THE FLOW MODEL =    41

 MAXIMUM STEPSIZE WHICH MEETS STABILITY CRITERION OF THE SINK & SOURCE TERM
 =  90.00    (WHEN MIN. R.F.=1)  AT K=   1, I=   5, J=   5

 MAXIMUM STEPSIZE WHICH MEETS STABILITY CRITERION OF THE DISPERSION TERM
 =  267.5    (WHEN MIN. R.F.=1)  AT K=   1, I=   5, J=   5


     1 CALLS TO GCG PACKAGE FOR TRANSPORT TIME STEP   1 IN FLOW TIME STEP  58 STRESS PERIOD   3
     2 TOTAL ITERATIONS
  MAXIMUM CONCENTRATION CHANGES FOR EACH ITERATION:
  MAX. CHANGE LAYER,ROW,COL MAX. CHANGE LAYER,ROW,COL MAX. CHANGE LAYER,ROW,COL MAX. CHANGE LAYER,ROW,COL MAX. CHANGE LAYER,ROW,COL
 ------------------------------------------------------------------------------------------------------------------------------------
   0.4273E-02 (  1,  5,  5)  0.7276E-11 (  2,  4,  6)


                                          ================================================
                                                         TIME STEP NO.  059
                                          ================================================

 FROM TIME =   159.00     TO    160.00    


                    "THKSAT          " FLOW TERMS FOR TIME STEP 59, STRESS PERIOD  3 READ UNFORMATTED ON UNIT 10
                    --------------------------------------------------------------------------------------------

                    "QXX             " FLOW TERMS FOR TIME STEP 59, STRESS PERIOD  3 READ UNFORMATTED ON UNIT 10
                    --------------------------------------------------------------------------------------------

                    "QYY             " FLOW TERMS FOR TIME STEP 59, STRESS PERIOD  3 READ UNFORMATTED ON UNIT 10
                    --------------------------------------------------------------------------------------------

                    "QZZ             " FLOW TERMS FOR TIME STEP 59, STRESS PERIOD  3 READ UNFORMATTED ON UNIT 10
                    --------------------------------------------------------------------------------------------

                    "STO             " FLOW TERMS FOR TIME STEP 59, STRESS PERIOD  3 READ UNFORMATTED ON UNIT 10
                    --------------------------------------------------------------------------------------------

 MAXIMUM STEPSIZE DURING WHICH ANY PARTICLE CANNOT MOVE MORE THAN ONE CELL
 =  422.2    (WHEN MIN. R.F.=1)  AT K=   2, I=   5, J=   5

 MAXIMUM STEPSIZE WHICH MEETS STABILITY CRITERION OF THE ADVECTION TERM
 (FOR PURE FINITE-DIFFERENCE OPTION, MIXELM=0) 
 =  135.2    (WHEN MIN. R.F.=1)  AT K=   2, I=   5, J=   5

                    "CNH             " FLOW TERMS FOR TIME STEP 59, STRESS PERIOD  3 READ UNFORMATTED ON UNIT 10
                    --------------------------------------------------------------------------------------------

                    "WEL             " FLOW TERMS FOR TIME STEP 59, STRESS PERIOD  3 READ UNFORMATTED ON UNIT 10
                    --------------------------------------------------------------------------------------------

                    "GHB             " FLOW TERMS FOR TIME STEP 59, STRESS PERIOD  3 READ UNFORMATTED ON UNIT 10
                    --------------------------------------------------------------------------------------------


 TOTAL NUMBER OF POINT SOURCES/SINKS PRESENT IN THE FLOW MODEL =    41

 MAXIMUM STEPSIZE WHICH MEETS STABILITY CRITERION OF THE SINK & SOURCE TERM
 =  90.00    (WHEN MIN. R.F.=1)  AT K=   1, I=   5, J=   5

 MAXIMUM STEPSIZE WHICH MEETS STABILITY CRITERION OF THE DISPERSION TERM
 =  267.5    (WHEN MIN. R.F.=1)  AT K=   1, I=   5, J=   5


     1 CALLS TO GCG PACKAGE FOR TRANSPORT TIME STEP   1 IN FLOW TIME STEP  59 STRESS PERIOD   3
     2 TOTAL ITERATIONS
  MAXIMUM CONCENTRATION CHANGES FOR EACH ITERATION:
  MAX. CHANGE LAYER,ROW,COL MAX. CHANGE LAYER,ROW,COL MAX. CHANGE LAYER,ROW,COL MAX. CHANGE LAYER,ROW,COL MAX. CHANGE LAYER,ROW,COL
 ------------------------------------------------------------------------------------------------------------------------------------
   0.4200E-02 (  1,  5,  5)  0.7276E-11 (  2,  4,  6)


                                          ================================================
                                                         TIME STEP NO.  060
                                          ================================================

 FROM TIME =   160.00     TO    161.00    


                    "THKSAT          " FLOW TERMS FOR TIME STEP 60, STRESS PERIOD  3 READ UNFORMATTED ON UNIT 10
                    --------------------------------------------------------------------------------------------

                    "QXX             " FLOW TERMS FOR TIME STEP 60, STRESS PERIOD  3 READ UNFORMATTED ON UNIT 10
                    --------------------------------------------------------------------------------------------

                    "QYY             " FLOW TERMS FOR TIME STEP 60, STRESS PERIOD  3 READ UNFORMATTED ON UNIT 10
                    --------------------------------------------------------------------------------------------

                    "QZZ             " FLOW TERMS FOR TIME STEP 60, STRESS PERIOD  3 READ UNFORMATTED ON UNIT 10
                    --------------------------------------------------------------------------------------------

                    "STO             " FLOW TERMS FOR TIME STEP 60, STRESS PERIOD  3 READ UNFORMATTED ON UNIT 10
                    --------------------------------------------------------------------------------------------

 MAXIMUM STEPSIZE DURING WHICH ANY PARTICLE CANNOT MOVE MORE THAN ONE CELL
 =  422.2    (WHEN MIN. R.F.=1)  AT K=   2, I=   5, J=   5

 MAXIMUM STEPSIZE WHICH MEETS STABILITY CRITERION OF THE ADVECTION TERM
 (FOR PURE FINITE-DIFFERENCE OPTION, MIXELM=0) 
 =  135.2    (WHEN MIN. R.F.=1)  AT K=   2, I=   5, J=   5

                    "CNH             " FLOW TERMS FOR TIME STEP 60, STRESS PERIOD  3 READ UNFORMATTED ON UNIT 10
                    --------------------------------------------------------------------------------------------

                    "WEL             " FLOW TERMS FOR TIME STEP 60, STRESS PERIOD  3 READ UNFORMATTED ON UNIT 10
                    --------------------------------------------------------------------------------------------

                    "GHB             " FLOW TERMS FOR TIME STEP 60, STRESS PERIOD  3 READ UNFORMATTED ON UNIT 10
                    --------------------------------------------------------------------------------------------


 TOTAL NUMBER OF POINT SOURCES/SINKS PRESENT IN THE FLOW MODEL =    41

 MAXIMUM STEPSIZE WHICH MEETS STABILITY CRITERION OF THE SINK & SOURCE TERM
 =  90.00    (WHEN MIN. R.F.=1)  AT K=   1, I=   5, J=   5

 MAXIMUM STEPSIZE WHICH MEETS STABILITY CRITERION OF THE DISPERSION TERM
 =  267.5    (WHEN MIN. R.F.=1)  AT K=   1, I=   5, J=   5


     1 CALLS TO GCG PACKAGE FOR TRANSPORT TIME STEP   1 IN FLOW TIME STEP  60 STRESS PERIOD   3
     2 TOTAL ITERATIONS
  MAXIMUM CONCENTRATION CHANGES FOR EACH ITERATION:
  MAX. CHANGE LAYER,ROW,COL MAX. CHANGE LAYER,ROW,COL MAX. CHANGE LAYER,ROW,COL MAX. CHANGE LAYER,ROW,COL MAX. CHANGE LAYER,ROW,COL
 ------------------------------------------------------------------------------------------------------------------------------------
   0.4130E-02 (  1,  5,  5)  0.7276E-11 (  2,  4,  6)


                                          ================================================
                                                         TIME STEP NO.  061
                                          ================================================

 FROM TIME =   161.00     TO    162.00    


                    "THKSAT          " FLOW TERMS FOR TIME STEP 61, STRESS PERIOD  3 READ UNFORMATTED ON UNIT 10
                    --------------------------------------------------------------------------------------------

                    "QXX             " FLOW TERMS FOR TIME STEP 61, STRESS PERIOD  3 READ UNFORMATTED ON UNIT 10
                    --------------------------------------------------------------------------------------------

                    "QYY             " FLOW TERMS FOR TIME STEP 61, STRESS PERIOD  3 READ UNFORMATTED ON UNIT 10
                    --------------------------------------------------------------------------------------------

                    "QZZ             " FLOW TERMS FOR TIME STEP 61, STRESS PERIOD  3 READ UNFORMATTED ON UNIT 10
                    --------------------------------------------------------------------------------------------

                    "STO             " FLOW TERMS FOR TIME STEP 61, STRESS PERIOD  3 READ UNFORMATTED ON UNIT 10
                    --------------------------------------------------------------------------------------------

 MAXIMUM STEPSIZE DURING WHICH ANY PARTICLE CANNOT MOVE MORE THAN ONE CELL
 =  422.2    (WHEN MIN. R.F.=1)  AT K=   2, I=   5, J=   5

 MAXIMUM STEPSIZE WHICH MEETS STABILITY CRITERION OF THE ADVECTION TERM
 (FOR PURE FINITE-DIFFERENCE OPTION, MIXELM=0) 
 =  135.2    (WHEN MIN. R.F.=1)  AT K=   2, I=   5, J=   5

                    "CNH             " FLOW TERMS FOR TIME STEP 61, STRESS PERIOD  3 READ UNFORMATTED ON UNIT 10
                    --------------------------------------------------------------------------------------------

                    "WEL             " FLOW TERMS FOR TIME STEP 61, STRESS PERIOD  3 READ UNFORMATTED ON UNIT 10
                    --------------------------------------------------------------------------------------------

                    "GHB             " FLOW TERMS FOR TIME STEP 61, STRESS PERIOD  3 READ UNFORMATTED ON UNIT 10
                    --------------------------------------------------------------------------------------------


 TOTAL NUMBER OF POINT SOURCES/SINKS PRESENT IN THE FLOW MODEL =    41

 MAXIMUM STEPSIZE WHICH MEETS STABILITY CRITERION OF THE SINK & SOURCE TERM
 =  90.00    (WHEN MIN. R.F.=1)  AT K=   1, I=   5, J=   5

 MAXIMUM STEPSIZE WHICH MEETS STABILITY CRITERION OF THE DISPERSION TERM
 =  267.5    (WHEN MIN. R.F.=1)  AT K=   1, I=   5, J=   5


     1 CALLS TO GCG PACKAGE FOR TRANSPORT TIME STEP   1 IN FLOW TIME STEP  61 STRESS PERIOD   3
     2 TOTAL ITERATIONS
  MAXIMUM CONCENTRATION CHANGES FOR EACH ITERATION:
  MAX. CHANGE LAYER,ROW,COL MAX. CHANGE LAYER,ROW,COL MAX. CHANGE LAYER,ROW,COL MAX. CHANGE LAYER,ROW,COL MAX. CHANGE LAYER,ROW,COL
 ------------------------------------------------------------------------------------------------------------------------------------
   0.4060E-02 (  1,  5,  5)  0.7276E-11 (  2,  4,  6)


                                          ================================================
                                                         TIME STEP NO.  062
                                          ================================================

 FROM TIME =   162.00     TO    163.00    


                    "THKSAT          " FLOW TERMS FOR TIME STEP 62, STRESS PERIOD  3 READ UNFORMATTED ON UNIT 10
                    --------------------------------------------------------------------------------------------

                    "QXX             " FLOW TERMS FOR TIME STEP 62, STRESS PERIOD  3 READ UNFORMATTED ON UNIT 10
                    --------------------------------------------------------------------------------------------

                    "QYY             " FLOW TERMS FOR TIME STEP 62, STRESS PERIOD  3 READ UNFORMATTED ON UNIT 10
                    --------------------------------------------------------------------------------------------

                    "QZZ             " FLOW TERMS FOR TIME STEP 62, STRESS PERIOD  3 READ UNFORMATTED ON UNIT 10
                    --------------------------------------------------------------------------------------------

                    "STO             " FLOW TERMS FOR TIME STEP 62, STRESS PERIOD  3 READ UNFORMATTED ON UNIT 10
                    --------------------------------------------------------------------------------------------

 MAXIMUM STEPSIZE DURING WHICH ANY PARTICLE CANNOT MOVE MORE THAN ONE CELL
 =  422.2    (WHEN MIN. R.F.=1)  AT K=   2, I=   5, J=   5

 MAXIMUM STEPSIZE WHICH MEETS STABILITY CRITERION OF THE ADVECTION TERM
 (FOR PURE FINITE-DIFFERENCE OPTION, MIXELM=0) 
 =  135.2    (WHEN MIN. R.F.=1)  AT K=   2, I=   5, J=   5

                    "CNH             " FLOW TERMS FOR TIME STEP 62, STRESS PERIOD  3 READ UNFORMATTED ON UNIT 10
                    --------------------------------------------------------------------------------------------

                    "WEL             " FLOW TERMS FOR TIME STEP 62, STRESS PERIOD  3 READ UNFORMATTED ON UNIT 10
                    --------------------------------------------------------------------------------------------

                    "GHB             " FLOW TERMS FOR TIME STEP 62, STRESS PERIOD  3 READ UNFORMATTED ON UNIT 10
                    --------------------------------------------------------------------------------------------


 TOTAL NUMBER OF POINT SOURCES/SINKS PRESENT IN THE FLOW MODEL =    41

 MAXIMUM STEPSIZE WHICH MEETS STABILITY CRITERION OF THE SINK & SOURCE TERM
 =  90.00    (WHEN MIN. R.F.=1)  AT K=   1, I=   5, J=   5

 MAXIMUM STEPSIZE WHICH MEETS STABILITY CRITERION OF THE DISPERSION TERM
 =  267.5    (WHEN MIN. R.F.=1)  AT K=   1, I=   5, J=   5


     1 CALLS TO GCG PACKAGE FOR TRANSPORT TIME STEP   1 IN FLOW TIME STEP  62 STRESS PERIOD   3
     2 TOTAL ITERATIONS
  MAXIMUM CONCENTRATION CHANGES FOR EACH ITERATION:
  MAX. CHANGE LAYER,ROW,COL MAX. CHANGE LAYER,ROW,COL MAX. CHANGE LAYER,ROW,COL MAX. CHANGE LAYER,ROW,COL MAX. CHANGE LAYER,ROW,COL
 ------------------------------------------------------------------------------------------------------------------------------------
   0.3996E-02 (  1,  5,  5)  0.7276E-11 (  2,  4,  6)


                                          ================================================
                                                         TIME STEP NO.  063
                                          ================================================

 FROM TIME =   163.00     TO    164.00    


                    "THKSAT          " FLOW TERMS FOR TIME STEP 63, STRESS PERIOD  3 READ UNFORMATTED ON UNIT 10
                    --------------------------------------------------------------------------------------------

                    "QXX             " FLOW TERMS FOR TIME STEP 63, STRESS PERIOD  3 READ UNFORMATTED ON UNIT 10
                    --------------------------------------------------------------------------------------------

                    "QYY             " FLOW TERMS FOR TIME STEP 63, STRESS PERIOD  3 READ UNFORMATTED ON UNIT 10
                    --------------------------------------------------------------------------------------------

                    "QZZ             " FLOW TERMS FOR TIME STEP 63, STRESS PERIOD  3 READ UNFORMATTED ON UNIT 10
                    --------------------------------------------------------------------------------------------

                    "STO             " FLOW TERMS FOR TIME STEP 63, STRESS PERIOD  3 READ UNFORMATTED ON UNIT 10
                    --------------------------------------------------------------------------------------------

 MAXIMUM STEPSIZE DURING WHICH ANY PARTICLE CANNOT MOVE MORE THAN ONE CELL
 =  422.2    (WHEN MIN. R.F.=1)  AT K=   2, I=   5, J=   5

 MAXIMUM STEPSIZE WHICH MEETS STABILITY CRITERION OF THE ADVECTION TERM
 (FOR PURE FINITE-DIFFERENCE OPTION, MIXELM=0) 
 =  135.2    (WHEN MIN. R.F.=1)  AT K=   2, I=   5, J=   5

                    "CNH             " FLOW TERMS FOR TIME STEP 63, STRESS PERIOD  3 READ UNFORMATTED ON UNIT 10
                    --------------------------------------------------------------------------------------------

                    "WEL             " FLOW TERMS FOR TIME STEP 63, STRESS PERIOD  3 READ UNFORMATTED ON UNIT 10
                    --------------------------------------------------------------------------------------------

                    "GHB             " FLOW TERMS FOR TIME STEP 63, STRESS PERIOD  3 READ UNFORMATTED ON UNIT 10
                    --------------------------------------------------------------------------------------------


 TOTAL NUMBER OF POINT SOURCES/SINKS PRESENT IN THE FLOW MODEL =    41

 MAXIMUM STEPSIZE WHICH MEETS STABILITY CRITERION OF THE SINK & SOURCE TERM
 =  90.00    (WHEN MIN. R.F.=1)  AT K=   1, I=   5, J=   5

 MAXIMUM STEPSIZE WHICH MEETS STABILITY CRITERION OF THE DISPERSION TERM
 =  267.5    (WHEN MIN. R.F.=1)  AT K=   1, I=   5, J=   5


     1 CALLS TO GCG PACKAGE FOR TRANSPORT TIME STEP   1 IN FLOW TIME STEP  63 STRESS PERIOD   3
     2 TOTAL ITERATIONS
  MAXIMUM CONCENTRATION CHANGES FOR EACH ITERATION:
  MAX. CHANGE LAYER,ROW,COL MAX. CHANGE LAYER,ROW,COL MAX. CHANGE LAYER,ROW,COL MAX. CHANGE LAYER,ROW,COL MAX. CHANGE LAYER,ROW,COL
 ------------------------------------------------------------------------------------------------------------------------------------
   0.3929E-02 (  1,  5,  5)  0.7276E-11 (  2,  4,  6)


                                          ================================================
                                                         TIME STEP NO.  064
                                          ================================================

 FROM TIME =   164.00     TO    165.00    


                    "THKSAT          " FLOW TERMS FOR TIME STEP 64, STRESS PERIOD  3 READ UNFORMATTED ON UNIT 10
                    --------------------------------------------------------------------------------------------

                    "QXX             " FLOW TERMS FOR TIME STEP 64, STRESS PERIOD  3 READ UNFORMATTED ON UNIT 10
                    --------------------------------------------------------------------------------------------

                    "QYY             " FLOW TERMS FOR TIME STEP 64, STRESS PERIOD  3 READ UNFORMATTED ON UNIT 10
                    --------------------------------------------------------------------------------------------

                    "QZZ             " FLOW TERMS FOR TIME STEP 64, STRESS PERIOD  3 READ UNFORMATTED ON UNIT 10
                    --------------------------------------------------------------------------------------------

                    "STO             " FLOW TERMS FOR TIME STEP 64, STRESS PERIOD  3 READ UNFORMATTED ON UNIT 10
                    --------------------------------------------------------------------------------------------

 MAXIMUM STEPSIZE DURING WHICH ANY PARTICLE CANNOT MOVE MORE THAN ONE CELL
 =  422.2    (WHEN MIN. R.F.=1)  AT K=   2, I=   5, J=   5

 MAXIMUM STEPSIZE WHICH MEETS STABILITY CRITERION OF THE ADVECTION TERM
 (FOR PURE FINITE-DIFFERENCE OPTION, MIXELM=0) 
 =  135.2    (WHEN MIN. R.F.=1)  AT K=   2, I=   5, J=   5

                    "CNH             " FLOW TERMS FOR TIME STEP 64, STRESS PERIOD  3 READ UNFORMATTED ON UNIT 10
                    --------------------------------------------------------------------------------------------

                    "WEL             " FLOW TERMS FOR TIME STEP 64, STRESS PERIOD  3 READ UNFORMATTED ON UNIT 10
                    --------------------------------------------------------------------------------------------

                    "GHB             " FLOW TERMS FOR TIME STEP 64, STRESS PERIOD  3 READ UNFORMATTED ON UNIT 10
                    --------------------------------------------------------------------------------------------


 TOTAL NUMBER OF POINT SOURCES/SINKS PRESENT IN THE FLOW MODEL =    41

 MAXIMUM STEPSIZE WHICH MEETS STABILITY CRITERION OF THE SINK & SOURCE TERM
 =  90.00    (WHEN MIN. R.F.=1)  AT K=   1, I=   5, J=   5

 MAXIMUM STEPSIZE WHICH MEETS STABILITY CRITERION OF THE DISPERSION TERM
 =  267.5    (WHEN MIN. R.F.=1)  AT K=   1, I=   5, J=   5


     1 CALLS TO GCG PACKAGE FOR TRANSPORT TIME STEP   1 IN FLOW TIME STEP  64 STRESS PERIOD   3
     2 TOTAL ITERATIONS
  MAXIMUM CONCENTRATION CHANGES FOR EACH ITERATION:
  MAX. CHANGE LAYER,ROW,COL MAX. CHANGE LAYER,ROW,COL MAX. CHANGE LAYER,ROW,COL MAX. CHANGE LAYER,ROW,COL MAX. CHANGE LAYER,ROW,COL
 ------------------------------------------------------------------------------------------------------------------------------------
   0.3864E-02 (  1,  5,  5)  0.7276E-11 (  2,  4,  6)


                                          ================================================
                                                         TIME STEP NO.  065
                                          ================================================

 FROM TIME =   165.00     TO    166.00    


                    "THKSAT          " FLOW TERMS FOR TIME STEP 65, STRESS PERIOD  3 READ UNFORMATTED ON UNIT 10
                    --------------------------------------------------------------------------------------------

                    "QXX             " FLOW TERMS FOR TIME STEP 65, STRESS PERIOD  3 READ UNFORMATTED ON UNIT 10
                    --------------------------------------------------------------------------------------------

                    "QYY             " FLOW TERMS FOR TIME STEP 65, STRESS PERIOD  3 READ UNFORMATTED ON UNIT 10
                    --------------------------------------------------------------------------------------------

                    "QZZ             " FLOW TERMS FOR TIME STEP 65, STRESS PERIOD  3 READ UNFORMATTED ON UNIT 10
                    --------------------------------------------------------------------------------------------

                    "STO             " FLOW TERMS FOR TIME STEP 65, STRESS PERIOD  3 READ UNFORMATTED ON UNIT 10
                    --------------------------------------------------------------------------------------------

 MAXIMUM STEPSIZE DURING WHICH ANY PARTICLE CANNOT MOVE MORE THAN ONE CELL
 =  422.2    (WHEN MIN. R.F.=1)  AT K=   2, I=   5, J=   5

 MAXIMUM STEPSIZE WHICH MEETS STABILITY CRITERION OF THE ADVECTION TERM
 (FOR PURE FINITE-DIFFERENCE OPTION, MIXELM=0) 
 =  135.2    (WHEN MIN. R.F.=1)  AT K=   2, I=   5, J=   5

                    "CNH             " FLOW TERMS FOR TIME STEP 65, STRESS PERIOD  3 READ UNFORMATTED ON UNIT 10
                    --------------------------------------------------------------------------------------------

                    "WEL             " FLOW TERMS FOR TIME STEP 65, STRESS PERIOD  3 READ UNFORMATTED ON UNIT 10
                    --------------------------------------------------------------------------------------------

                    "GHB             " FLOW TERMS FOR TIME STEP 65, STRESS PERIOD  3 READ UNFORMATTED ON UNIT 10
                    --------------------------------------------------------------------------------------------


 TOTAL NUMBER OF POINT SOURCES/SINKS PRESENT IN THE FLOW MODEL =    41

 MAXIMUM STEPSIZE WHICH MEETS STABILITY CRITERION OF THE SINK & SOURCE TERM
 =  90.00    (WHEN MIN. R.F.=1)  AT K=   1, I=   5, J=   5

 MAXIMUM STEPSIZE WHICH MEETS STABILITY CRITERION OF THE DISPERSION TERM
 =  267.5    (WHEN MIN. R.F.=1)  AT K=   1, I=   5, J=   5


     1 CALLS TO GCG PACKAGE FOR TRANSPORT TIME STEP   1 IN FLOW TIME STEP  65 STRESS PERIOD   3
     2 TOTAL ITERATIONS
  MAXIMUM CONCENTRATION CHANGES FOR EACH ITERATION:
  MAX. CHANGE LAYER,ROW,COL MAX. CHANGE LAYER,ROW,COL MAX. CHANGE LAYER,ROW,COL MAX. CHANGE LAYER,ROW,COL MAX. CHANGE LAYER,ROW,COL
 ------------------------------------------------------------------------------------------------------------------------------------
   0.3800E-02 (  1,  5,  5)  0.7276E-11 (  2,  4,  6)


                                          ================================================
                                                         TIME STEP NO.  066
                                          ================================================

 FROM TIME =   166.00     TO    167.00    


                    "THKSAT          " FLOW TERMS FOR TIME STEP 66, STRESS PERIOD  3 READ UNFORMATTED ON UNIT 10
                    --------------------------------------------------------------------------------------------

                    "QXX             " FLOW TERMS FOR TIME STEP 66, STRESS PERIOD  3 READ UNFORMATTED ON UNIT 10
                    --------------------------------------------------------------------------------------------

                    "QYY             " FLOW TERMS FOR TIME STEP 66, STRESS PERIOD  3 READ UNFORMATTED ON UNIT 10
                    --------------------------------------------------------------------------------------------

                    "QZZ             " FLOW TERMS FOR TIME STEP 66, STRESS PERIOD  3 READ UNFORMATTED ON UNIT 10
                    --------------------------------------------------------------------------------------------

                    "STO             " FLOW TERMS FOR TIME STEP 66, STRESS PERIOD  3 READ UNFORMATTED ON UNIT 10
                    --------------------------------------------------------------------------------------------

 MAXIMUM STEPSIZE DURING WHICH ANY PARTICLE CANNOT MOVE MORE THAN ONE CELL
 =  422.2    (WHEN MIN. R.F.=1)  AT K=   2, I=   5, J=   5

 MAXIMUM STEPSIZE WHICH MEETS STABILITY CRITERION OF THE ADVECTION TERM
 (FOR PURE FINITE-DIFFERENCE OPTION, MIXELM=0) 
 =  135.2    (WHEN MIN. R.F.=1)  AT K=   2, I=   5, J=   5

                    "CNH             " FLOW TERMS FOR TIME STEP 66, STRESS PERIOD  3 READ UNFORMATTED ON UNIT 10
                    --------------------------------------------------------------------------------------------

                    "WEL             " FLOW TERMS FOR TIME STEP 66, STRESS PERIOD  3 READ UNFORMATTED ON UNIT 10
                    --------------------------------------------------------------------------------------------

                    "GHB             " FLOW TERMS FOR TIME STEP 66, STRESS PERIOD  3 READ UNFORMATTED ON UNIT 10
                    --------------------------------------------------------------------------------------------


 TOTAL NUMBER OF POINT SOURCES/SINKS PRESENT IN THE FLOW MODEL =    41

 MAXIMUM STEPSIZE WHICH MEETS STABILITY CRITERION OF THE SINK & SOURCE TERM
 =  90.00    (WHEN MIN. R.F.=1)  AT K=   1, I=   5, J=   5

 MAXIMUM STEPSIZE WHICH MEETS STABILITY CRITERION OF THE DISPERSION TERM
 =  267.6    (WHEN MIN. R.F.=1)  AT K=   1, I=   5, J=   5


     1 CALLS TO GCG PACKAGE FOR TRANSPORT TIME STEP   1 IN FLOW TIME STEP  66 STRESS PERIOD   3
     2 TOTAL ITERATIONS
  MAXIMUM CONCENTRATION CHANGES FOR EACH ITERATION:
  MAX. CHANGE LAYER,ROW,COL MAX. CHANGE LAYER,ROW,COL MAX. CHANGE LAYER,ROW,COL MAX. CHANGE LAYER,ROW,COL MAX. CHANGE LAYER,ROW,COL
 ------------------------------------------------------------------------------------------------------------------------------------
   0.3744E-02 (  1,  5,  5)  0.7276E-11 (  2,  4,  6)


                                          ================================================
                                                         TIME STEP NO.  067
                                          ================================================

 FROM TIME =   167.00     TO    168.00    


                    "THKSAT          " FLOW TERMS FOR TIME STEP 67, STRESS PERIOD  3 READ UNFORMATTED ON UNIT 10
                    --------------------------------------------------------------------------------------------

                    "QXX             " FLOW TERMS FOR TIME STEP 67, STRESS PERIOD  3 READ UNFORMATTED ON UNIT 10
                    --------------------------------------------------------------------------------------------

                    "QYY             " FLOW TERMS FOR TIME STEP 67, STRESS PERIOD  3 READ UNFORMATTED ON UNIT 10
                    --------------------------------------------------------------------------------------------

                    "QZZ             " FLOW TERMS FOR TIME STEP 67, STRESS PERIOD  3 READ UNFORMATTED ON UNIT 10
                    --------------------------------------------------------------------------------------------

                    "STO             " FLOW TERMS FOR TIME STEP 67, STRESS PERIOD  3 READ UNFORMATTED ON UNIT 10
                    --------------------------------------------------------------------------------------------

 MAXIMUM STEPSIZE DURING WHICH ANY PARTICLE CANNOT MOVE MORE THAN ONE CELL
 =  422.2    (WHEN MIN. R.F.=1)  AT K=   2, I=   5, J=   5

 MAXIMUM STEPSIZE WHICH MEETS STABILITY CRITERION OF THE ADVECTION TERM
 (FOR PURE FINITE-DIFFERENCE OPTION, MIXELM=0) 
 =  135.2    (WHEN MIN. R.F.=1)  AT K=   2, I=   5, J=   5

                    "CNH             " FLOW TERMS FOR TIME STEP 67, STRESS PERIOD  3 READ UNFORMATTED ON UNIT 10
                    --------------------------------------------------------------------------------------------

                    "WEL             " FLOW TERMS FOR TIME STEP 67, STRESS PERIOD  3 READ UNFORMATTED ON UNIT 10
                    --------------------------------------------------------------------------------------------

                    "GHB             " FLOW TERMS FOR TIME STEP 67, STRESS PERIOD  3 READ UNFORMATTED ON UNIT 10
                    --------------------------------------------------------------------------------------------


 TOTAL NUMBER OF POINT SOURCES/SINKS PRESENT IN THE FLOW MODEL =    41

 MAXIMUM STEPSIZE WHICH MEETS STABILITY CRITERION OF THE SINK & SOURCE TERM
 =  90.00    (WHEN MIN. R.F.=1)  AT K=   1, I=   5, J=   5

 MAXIMUM STEPSIZE WHICH MEETS STABILITY CRITERION OF THE DISPERSION TERM
 =  267.6    (WHEN MIN. R.F.=1)  AT K=   1, I=   5, J=   5


     1 CALLS TO GCG PACKAGE FOR TRANSPORT TIME STEP   1 IN FLOW TIME STEP  67 STRESS PERIOD   3
     2 TOTAL ITERATIONS
  MAXIMUM CONCENTRATION CHANGES FOR EACH ITERATION:
  MAX. CHANGE LAYER,ROW,COL MAX. CHANGE LAYER,ROW,COL MAX. CHANGE LAYER,ROW,COL MAX. CHANGE LAYER,ROW,COL MAX. CHANGE LAYER,ROW,COL
 ------------------------------------------------------------------------------------------------------------------------------------
   0.3683E-02 (  1,  5,  5)  0.7276E-11 (  2,  4,  6)


                                          ================================================
                                                         TIME STEP NO.  068
                                          ================================================

 FROM TIME =   168.00     TO    169.00    


                    "THKSAT          " FLOW TERMS FOR TIME STEP 68, STRESS PERIOD  3 READ UNFORMATTED ON UNIT 10
                    --------------------------------------------------------------------------------------------

                    "QXX             " FLOW TERMS FOR TIME STEP 68, STRESS PERIOD  3 READ UNFORMATTED ON UNIT 10
                    --------------------------------------------------------------------------------------------

                    "QYY             " FLOW TERMS FOR TIME STEP 68, STRESS PERIOD  3 READ UNFORMATTED ON UNIT 10
                    --------------------------------------------------------------------------------------------

                    "QZZ             " FLOW TERMS FOR TIME STEP 68, STRESS PERIOD  3 READ UNFORMATTED ON UNIT 10
                    --------------------------------------------------------------------------------------------

                    "STO             " FLOW TERMS FOR TIME STEP 68, STRESS PERIOD  3 READ UNFORMATTED ON UNIT 10
                    --------------------------------------------------------------------------------------------

 MAXIMUM STEPSIZE DURING WHICH ANY PARTICLE CANNOT MOVE MORE THAN ONE CELL
 =  422.2    (WHEN MIN. R.F.=1)  AT K=   2, I=   5, J=   5

 MAXIMUM STEPSIZE WHICH MEETS STABILITY CRITERION OF THE ADVECTION TERM
 (FOR PURE FINITE-DIFFERENCE OPTION, MIXELM=0) 
 =  135.2    (WHEN MIN. R.F.=1)  AT K=   2, I=   5, J=   5

                    "CNH             " FLOW TERMS FOR TIME STEP 68, STRESS PERIOD  3 READ UNFORMATTED ON UNIT 10
                    --------------------------------------------------------------------------------------------

                    "WEL             " FLOW TERMS FOR TIME STEP 68, STRESS PERIOD  3 READ UNFORMATTED ON UNIT 10
                    --------------------------------------------------------------------------------------------

                    "GHB             " FLOW TERMS FOR TIME STEP 68, STRESS PERIOD  3 READ UNFORMATTED ON UNIT 10
                    --------------------------------------------------------------------------------------------


 TOTAL NUMBER OF POINT SOURCES/SINKS PRESENT IN THE FLOW MODEL =    41

 MAXIMUM STEPSIZE WHICH MEETS STABILITY CRITERION OF THE SINK & SOURCE TERM
 =  90.00    (WHEN MIN. R.F.=1)  AT K=   1, I=   5, J=   5

 MAXIMUM STEPSIZE WHICH MEETS STABILITY CRITERION OF THE DISPERSION TERM
 =  267.6    (WHEN MIN. R.F.=1)  AT K=   1, I=   5, J=   5


     1 CALLS TO GCG PACKAGE FOR TRANSPORT TIME STEP   1 IN FLOW TIME STEP  68 STRESS PERIOD   3
     2 TOTAL ITERATIONS
  MAXIMUM CONCENTRATION CHANGES FOR EACH ITERATION:
  MAX. CHANGE LAYER,ROW,COL MAX. CHANGE LAYER,ROW,COL MAX. CHANGE LAYER,ROW,COL MAX. CHANGE LAYER,ROW,COL MAX. CHANGE LAYER,ROW,COL
 ------------------------------------------------------------------------------------------------------------------------------------
   0.3623E-02 (  1,  5,  5)  0.7276E-11 (  2,  4,  6)


                                          ================================================
                                                         TIME STEP NO.  069
                                          ================================================

 FROM TIME =   169.00     TO    170.00    


                    "THKSAT          " FLOW TERMS FOR TIME STEP 69, STRESS PERIOD  3 READ UNFORMATTED ON UNIT 10
                    --------------------------------------------------------------------------------------------

                    "QXX             " FLOW TERMS FOR TIME STEP 69, STRESS PERIOD  3 READ UNFORMATTED ON UNIT 10
                    --------------------------------------------------------------------------------------------

                    "QYY             " FLOW TERMS FOR TIME STEP 69, STRESS PERIOD  3 READ UNFORMATTED ON UNIT 10
                    --------------------------------------------------------------------------------------------

                    "QZZ             " FLOW TERMS FOR TIME STEP 69, STRESS PERIOD  3 READ UNFORMATTED ON UNIT 10
                    --------------------------------------------------------------------------------------------

                    "STO             " FLOW TERMS FOR TIME STEP 69, STRESS PERIOD  3 READ UNFORMATTED ON UNIT 10
                    --------------------------------------------------------------------------------------------

 MAXIMUM STEPSIZE DURING WHICH ANY PARTICLE CANNOT MOVE MORE THAN ONE CELL
 =  422.2    (WHEN MIN. R.F.=1)  AT K=   2, I=   5, J=   5

 MAXIMUM STEPSIZE WHICH MEETS STABILITY CRITERION OF THE ADVECTION TERM
 (FOR PURE FINITE-DIFFERENCE OPTION, MIXELM=0) 
 =  135.2    (WHEN MIN. R.F.=1)  AT K=   2, I=   5, J=   5

                    "CNH             " FLOW TERMS FOR TIME STEP 69, STRESS PERIOD  3 READ UNFORMATTED ON UNIT 10
                    --------------------------------------------------------------------------------------------

                    "WEL             " FLOW TERMS FOR TIME STEP 69, STRESS PERIOD  3 READ UNFORMATTED ON UNIT 10
                    --------------------------------------------------------------------------------------------

                    "GHB             " FLOW TERMS FOR TIME STEP 69, STRESS PERIOD  3 READ UNFORMATTED ON UNIT 10
                    --------------------------------------------------------------------------------------------


 TOTAL NUMBER OF POINT SOURCES/SINKS PRESENT IN THE FLOW MODEL =    41

 MAXIMUM STEPSIZE WHICH MEETS STABILITY CRITERION OF THE SINK & SOURCE TERM
 =  90.00    (WHEN MIN. R.F.=1)  AT K=   1, I=   5, J=   5

 MAXIMUM STEPSIZE WHICH MEETS STABILITY CRITERION OF THE DISPERSION TERM
 =  267.6    (WHEN MIN. R.F.=1)  AT K=   1, I=   5, J=   5


     1 CALLS TO GCG PACKAGE FOR TRANSPORT TIME STEP   1 IN FLOW TIME STEP  69 STRESS PERIOD   3
     2 TOTAL ITERATIONS
  MAXIMUM CONCENTRATION CHANGES FOR EACH ITERATION:
  MAX. CHANGE LAYER,ROW,COL MAX. CHANGE LAYER,ROW,COL MAX. CHANGE LAYER,ROW,COL MAX. CHANGE LAYER,ROW,COL MAX. CHANGE LAYER,ROW,COL
 ------------------------------------------------------------------------------------------------------------------------------------
   0.3564E-02 (  1,  5,  5)  0.7276E-11 (  2,  4,  6)


                                          ================================================
                                                         TIME STEP NO.  070
                                          ================================================

 FROM TIME =   170.00     TO    171.00    


                    "THKSAT          " FLOW TERMS FOR TIME STEP 70, STRESS PERIOD  3 READ UNFORMATTED ON UNIT 10
                    --------------------------------------------------------------------------------------------

                    "QXX             " FLOW TERMS FOR TIME STEP 70, STRESS PERIOD  3 READ UNFORMATTED ON UNIT 10
                    --------------------------------------------------------------------------------------------

                    "QYY             " FLOW TERMS FOR TIME STEP 70, STRESS PERIOD  3 READ UNFORMATTED ON UNIT 10
                    --------------------------------------------------------------------------------------------

                    "QZZ             " FLOW TERMS FOR TIME STEP 70, STRESS PERIOD  3 READ UNFORMATTED ON UNIT 10
                    --------------------------------------------------------------------------------------------

                    "STO             " FLOW TERMS FOR TIME STEP 70, STRESS PERIOD  3 READ UNFORMATTED ON UNIT 10
                    --------------------------------------------------------------------------------------------

 MAXIMUM STEPSIZE DURING WHICH ANY PARTICLE CANNOT MOVE MORE THAN ONE CELL
 =  422.2    (WHEN MIN. R.F.=1)  AT K=   2, I=   5, J=   5

 MAXIMUM STEPSIZE WHICH MEETS STABILITY CRITERION OF THE ADVECTION TERM
 (FOR PURE FINITE-DIFFERENCE OPTION, MIXELM=0) 
 =  135.2    (WHEN MIN. R.F.=1)  AT K=   2, I=   5, J=   5

                    "CNH             " FLOW TERMS FOR TIME STEP 70, STRESS PERIOD  3 READ UNFORMATTED ON UNIT 10
                    --------------------------------------------------------------------------------------------

                    "WEL             " FLOW TERMS FOR TIME STEP 70, STRESS PERIOD  3 READ UNFORMATTED ON UNIT 10
                    --------------------------------------------------------------------------------------------

                    "GHB             " FLOW TERMS FOR TIME STEP 70, STRESS PERIOD  3 READ UNFORMATTED ON UNIT 10
                    --------------------------------------------------------------------------------------------


 TOTAL NUMBER OF POINT SOURCES/SINKS PRESENT IN THE FLOW MODEL =    41

 MAXIMUM STEPSIZE WHICH MEETS STABILITY CRITERION OF THE SINK & SOURCE TERM
 =  90.00    (WHEN MIN. R.F.=1)  AT K=   1, I=   5, J=   5

 MAXIMUM STEPSIZE WHICH MEETS STABILITY CRITERION OF THE DISPERSION TERM
 =  267.6    (WHEN MIN. R.F.=1)  AT K=   1, I=   5, J=   5


     1 CALLS TO GCG PACKAGE FOR TRANSPORT TIME STEP   1 IN FLOW TIME STEP  70 STRESS PERIOD   3
     2 TOTAL ITERATIONS
  MAXIMUM CONCENTRATION CHANGES FOR EACH ITERATION:
  MAX. CHANGE LAYER,ROW,COL MAX. CHANGE LAYER,ROW,COL MAX. CHANGE LAYER,ROW,COL MAX. CHANGE LAYER,ROW,COL MAX. CHANGE LAYER,ROW,COL
 ------------------------------------------------------------------------------------------------------------------------------------
   0.3507E-02 (  1,  5,  5)  0.7276E-11 (  2,  4,  6)


                                          ================================================
                                                         TIME STEP NO.  071
                                          ================================================

 FROM TIME =   171.00     TO    172.00    


                    "THKSAT          " FLOW TERMS FOR TIME STEP 71, STRESS PERIOD  3 READ UNFORMATTED ON UNIT 10
                    --------------------------------------------------------------------------------------------

                    "QXX             " FLOW TERMS FOR TIME STEP 71, STRESS PERIOD  3 READ UNFORMATTED ON UNIT 10
                    --------------------------------------------------------------------------------------------

                    "QYY             " FLOW TERMS FOR TIME STEP 71, STRESS PERIOD  3 READ UNFORMATTED ON UNIT 10
                    --------------------------------------------------------------------------------------------

                    "QZZ             " FLOW TERMS FOR TIME STEP 71, STRESS PERIOD  3 READ UNFORMATTED ON UNIT 10
                    --------------------------------------------------------------------------------------------

                    "STO             " FLOW TERMS FOR TIME STEP 71, STRESS PERIOD  3 READ UNFORMATTED ON UNIT 10
                    --------------------------------------------------------------------------------------------

 MAXIMUM STEPSIZE DURING WHICH ANY PARTICLE CANNOT MOVE MORE THAN ONE CELL
 =  422.2    (WHEN MIN. R.F.=1)  AT K=   2, I=   5, J=   5

 MAXIMUM STEPSIZE WHICH MEETS STABILITY CRITERION OF THE ADVECTION TERM
 (FOR PURE FINITE-DIFFERENCE OPTION, MIXELM=0) 
 =  135.2    (WHEN MIN. R.F.=1)  AT K=   2, I=   5, J=   5

                    "CNH             " FLOW TERMS FOR TIME STEP 71, STRESS PERIOD  3 READ UNFORMATTED ON UNIT 10
                    --------------------------------------------------------------------------------------------

                    "WEL             " FLOW TERMS FOR TIME STEP 71, STRESS PERIOD  3 READ UNFORMATTED ON UNIT 10
                    --------------------------------------------------------------------------------------------

                    "GHB             " FLOW TERMS FOR TIME STEP 71, STRESS PERIOD  3 READ UNFORMATTED ON UNIT 10
                    --------------------------------------------------------------------------------------------


 TOTAL NUMBER OF POINT SOURCES/SINKS PRESENT IN THE FLOW MODEL =    41

 MAXIMUM STEPSIZE WHICH MEETS STABILITY CRITERION OF THE SINK & SOURCE TERM
 =  90.00    (WHEN MIN. R.F.=1)  AT K=   1, I=   5, J=   5

 MAXIMUM STEPSIZE WHICH MEETS STABILITY CRITERION OF THE DISPERSION TERM
 =  267.6    (WHEN MIN. R.F.=1)  AT K=   1, I=   5, J=   5


     1 CALLS TO GCG PACKAGE FOR TRANSPORT TIME STEP   1 IN FLOW TIME STEP  71 STRESS PERIOD   3
     2 TOTAL ITERATIONS
  MAXIMUM CONCENTRATION CHANGES FOR EACH ITERATION:
  MAX. CHANGE LAYER,ROW,COL MAX. CHANGE LAYER,ROW,COL MAX. CHANGE LAYER,ROW,COL MAX. CHANGE LAYER,ROW,COL MAX. CHANGE LAYER,ROW,COL
 ------------------------------------------------------------------------------------------------------------------------------------
   0.3450E-02 (  1,  5,  5)  0.7276E-11 (  2,  4,  6)


                                          ================================================
                                                         TIME STEP NO.  072
                                          ================================================

 FROM TIME =   172.00     TO    173.00    


                    "THKSAT          " FLOW TERMS FOR TIME STEP 72, STRESS PERIOD  3 READ UNFORMATTED ON UNIT 10
                    --------------------------------------------------------------------------------------------

                    "QXX             " FLOW TERMS FOR TIME STEP 72, STRESS PERIOD  3 READ UNFORMATTED ON UNIT 10
                    --------------------------------------------------------------------------------------------

                    "QYY             " FLOW TERMS FOR TIME STEP 72, STRESS PERIOD  3 READ UNFORMATTED ON UNIT 10
                    --------------------------------------------------------------------------------------------

                    "QZZ             " FLOW TERMS FOR TIME STEP 72, STRESS PERIOD  3 READ UNFORMATTED ON UNIT 10
                    --------------------------------------------------------------------------------------------

                    "STO             " FLOW TERMS FOR TIME STEP 72, STRESS PERIOD  3 READ UNFORMATTED ON UNIT 10
                    --------------------------------------------------------------------------------------------

 MAXIMUM STEPSIZE DURING WHICH ANY PARTICLE CANNOT MOVE MORE THAN ONE CELL
 =  422.2    (WHEN MIN. R.F.=1)  AT K=   2, I=   5, J=   5

 MAXIMUM STEPSIZE WHICH MEETS STABILITY CRITERION OF THE ADVECTION TERM
 (FOR PURE FINITE-DIFFERENCE OPTION, MIXELM=0) 
 =  135.2    (WHEN MIN. R.F.=1)  AT K=   2, I=   5, J=   5

                    "CNH             " FLOW TERMS FOR TIME STEP 72, STRESS PERIOD  3 READ UNFORMATTED ON UNIT 10
                    --------------------------------------------------------------------------------------------

                    "WEL             " FLOW TERMS FOR TIME STEP 72, STRESS PERIOD  3 READ UNFORMATTED ON UNIT 10
                    --------------------------------------------------------------------------------------------

                    "GHB             " FLOW TERMS FOR TIME STEP 72, STRESS PERIOD  3 READ UNFORMATTED ON UNIT 10
                    --------------------------------------------------------------------------------------------


 TOTAL NUMBER OF POINT SOURCES/SINKS PRESENT IN THE FLOW MODEL =    41

 MAXIMUM STEPSIZE WHICH MEETS STABILITY CRITERION OF THE SINK & SOURCE TERM
 =  90.00    (WHEN MIN. R.F.=1)  AT K=   1, I=   5, J=   5

 MAXIMUM STEPSIZE WHICH MEETS STABILITY CRITERION OF THE DISPERSION TERM
 =  267.6    (WHEN MIN. R.F.=1)  AT K=   1, I=   5, J=   5


     1 CALLS TO GCG PACKAGE FOR TRANSPORT TIME STEP   1 IN FLOW TIME STEP  72 STRESS PERIOD   3
     2 TOTAL ITERATIONS
  MAXIMUM CONCENTRATION CHANGES FOR EACH ITERATION:
  MAX. CHANGE LAYER,ROW,COL MAX. CHANGE LAYER,ROW,COL MAX. CHANGE LAYER,ROW,COL MAX. CHANGE LAYER,ROW,COL MAX. CHANGE LAYER,ROW,COL
 ------------------------------------------------------------------------------------------------------------------------------------
   0.3395E-02 (  1,  5,  5)  0.7276E-11 (  2,  4,  6)


                                          ================================================
                                                         TIME STEP NO.  073
                                          ================================================

 FROM TIME =   173.00     TO    174.00    


                    "THKSAT          " FLOW TERMS FOR TIME STEP 73, STRESS PERIOD  3 READ UNFORMATTED ON UNIT 10
                    --------------------------------------------------------------------------------------------

                    "QXX             " FLOW TERMS FOR TIME STEP 73, STRESS PERIOD  3 READ UNFORMATTED ON UNIT 10
                    --------------------------------------------------------------------------------------------

                    "QYY             " FLOW TERMS FOR TIME STEP 73, STRESS PERIOD  3 READ UNFORMATTED ON UNIT 10
                    --------------------------------------------------------------------------------------------

                    "QZZ             " FLOW TERMS FOR TIME STEP 73, STRESS PERIOD  3 READ UNFORMATTED ON UNIT 10
                    --------------------------------------------------------------------------------------------

                    "STO             " FLOW TERMS FOR TIME STEP 73, STRESS PERIOD  3 READ UNFORMATTED ON UNIT 10
                    --------------------------------------------------------------------------------------------

 MAXIMUM STEPSIZE DURING WHICH ANY PARTICLE CANNOT MOVE MORE THAN ONE CELL
 =  422.2    (WHEN MIN. R.F.=1)  AT K=   2, I=   5, J=   5

 MAXIMUM STEPSIZE WHICH MEETS STABILITY CRITERION OF THE ADVECTION TERM
 (FOR PURE FINITE-DIFFERENCE OPTION, MIXELM=0) 
 =  135.2    (WHEN MIN. R.F.=1)  AT K=   2, I=   5, J=   5

                    "CNH             " FLOW TERMS FOR TIME STEP 73, STRESS PERIOD  3 READ UNFORMATTED ON UNIT 10
                    --------------------------------------------------------------------------------------------

                    "WEL             " FLOW TERMS FOR TIME STEP 73, STRESS PERIOD  3 READ UNFORMATTED ON UNIT 10
                    --------------------------------------------------------------------------------------------

                    "GHB             " FLOW TERMS FOR TIME STEP 73, STRESS PERIOD  3 READ UNFORMATTED ON UNIT 10
                    --------------------------------------------------------------------------------------------


 TOTAL NUMBER OF POINT SOURCES/SINKS PRESENT IN THE FLOW MODEL =    41

 MAXIMUM STEPSIZE WHICH MEETS STABILITY CRITERION OF THE SINK & SOURCE TERM
 =  90.00    (WHEN MIN. R.F.=1)  AT K=   1, I=   5, J=   5

 MAXIMUM STEPSIZE WHICH MEETS STABILITY CRITERION OF THE DISPERSION TERM
 =  267.6    (WHEN MIN. R.F.=1)  AT K=   1, I=   5, J=   5


     1 CALLS TO GCG PACKAGE FOR TRANSPORT TIME STEP   1 IN FLOW TIME STEP  73 STRESS PERIOD   3
     2 TOTAL ITERATIONS
  MAXIMUM CONCENTRATION CHANGES FOR EACH ITERATION:
  MAX. CHANGE LAYER,ROW,COL MAX. CHANGE LAYER,ROW,COL MAX. CHANGE LAYER,ROW,COL MAX. CHANGE LAYER,ROW,COL MAX. CHANGE LAYER,ROW,COL
 ------------------------------------------------------------------------------------------------------------------------------------
   0.3341E-02 (  1,  5,  5)  0.7276E-11 (  2,  4,  6)


                                          ================================================
                                                         TIME STEP NO.  074
                                          ================================================

 FROM TIME =   174.00     TO    175.00    


                    "THKSAT          " FLOW TERMS FOR TIME STEP 74, STRESS PERIOD  3 READ UNFORMATTED ON UNIT 10
                    --------------------------------------------------------------------------------------------

                    "QXX             " FLOW TERMS FOR TIME STEP 74, STRESS PERIOD  3 READ UNFORMATTED ON UNIT 10
                    --------------------------------------------------------------------------------------------

                    "QYY             " FLOW TERMS FOR TIME STEP 74, STRESS PERIOD  3 READ UNFORMATTED ON UNIT 10
                    --------------------------------------------------------------------------------------------

                    "QZZ             " FLOW TERMS FOR TIME STEP 74, STRESS PERIOD  3 READ UNFORMATTED ON UNIT 10
                    --------------------------------------------------------------------------------------------

                    "STO             " FLOW TERMS FOR TIME STEP 74, STRESS PERIOD  3 READ UNFORMATTED ON UNIT 10
                    --------------------------------------------------------------------------------------------

 MAXIMUM STEPSIZE DURING WHICH ANY PARTICLE CANNOT MOVE MORE THAN ONE CELL
 =  422.2    (WHEN MIN. R.F.=1)  AT K=   2, I=   5, J=   5

 MAXIMUM STEPSIZE WHICH MEETS STABILITY CRITERION OF THE ADVECTION TERM
 (FOR PURE FINITE-DIFFERENCE OPTION, MIXELM=0) 
 =  135.2    (WHEN MIN. R.F.=1)  AT K=   2, I=   5, J=   5

                    "CNH             " FLOW TERMS FOR TIME STEP 74, STRESS PERIOD  3 READ UNFORMATTED ON UNIT 10
                    --------------------------------------------------------------------------------------------

                    "WEL             " FLOW TERMS FOR TIME STEP 74, STRESS PERIOD  3 READ UNFORMATTED ON UNIT 10
                    --------------------------------------------------------------------------------------------

                    "GHB             " FLOW TERMS FOR TIME STEP 74, STRESS PERIOD  3 READ UNFORMATTED ON UNIT 10
                    --------------------------------------------------------------------------------------------


 TOTAL NUMBER OF POINT SOURCES/SINKS PRESENT IN THE FLOW MODEL =    41

 MAXIMUM STEPSIZE WHICH MEETS STABILITY CRITERION OF THE SINK & SOURCE TERM
 =  90.00    (WHEN MIN. R.F.=1)  AT K=   1, I=   5, J=   5

 MAXIMUM STEPSIZE WHICH MEETS STABILITY CRITERION OF THE DISPERSION TERM
 =  267.6    (WHEN MIN. R.F.=1)  AT K=   1, I=   5, J=   5


     1 CALLS TO GCG PACKAGE FOR TRANSPORT TIME STEP   1 IN FLOW TIME STEP  74 STRESS PERIOD   3
     2 TOTAL ITERATIONS
  MAXIMUM CONCENTRATION CHANGES FOR EACH ITERATION:
  MAX. CHANGE LAYER,ROW,COL MAX. CHANGE LAYER,ROW,COL MAX. CHANGE LAYER,ROW,COL MAX. CHANGE LAYER,ROW,COL MAX. CHANGE LAYER,ROW,COL
 ------------------------------------------------------------------------------------------------------------------------------------
   0.3288E-02 (  1,  5,  5)  0.7276E-11 (  2,  4,  6)


                                          ================================================
                                                         TIME STEP NO.  075
                                          ================================================

 FROM TIME =   175.00     TO    176.00    


                    "THKSAT          " FLOW TERMS FOR TIME STEP 75, STRESS PERIOD  3 READ UNFORMATTED ON UNIT 10
                    --------------------------------------------------------------------------------------------

                    "QXX             " FLOW TERMS FOR TIME STEP 75, STRESS PERIOD  3 READ UNFORMATTED ON UNIT 10
                    --------------------------------------------------------------------------------------------

                    "QYY             " FLOW TERMS FOR TIME STEP 75, STRESS PERIOD  3 READ UNFORMATTED ON UNIT 10
                    --------------------------------------------------------------------------------------------

                    "QZZ             " FLOW TERMS FOR TIME STEP 75, STRESS PERIOD  3 READ UNFORMATTED ON UNIT 10
                    --------------------------------------------------------------------------------------------

                    "STO             " FLOW TERMS FOR TIME STEP 75, STRESS PERIOD  3 READ UNFORMATTED ON UNIT 10
                    --------------------------------------------------------------------------------------------

 MAXIMUM STEPSIZE DURING WHICH ANY PARTICLE CANNOT MOVE MORE THAN ONE CELL
 =  422.2    (WHEN MIN. R.F.=1)  AT K=   2, I=   5, J=   5

 MAXIMUM STEPSIZE WHICH MEETS STABILITY CRITERION OF THE ADVECTION TERM
 (FOR PURE FINITE-DIFFERENCE OPTION, MIXELM=0) 
 =  135.2    (WHEN MIN. R.F.=1)  AT K=   2, I=   5, J=   5

                    "CNH             " FLOW TERMS FOR TIME STEP 75, STRESS PERIOD  3 READ UNFORMATTED ON UNIT 10
                    --------------------------------------------------------------------------------------------

                    "WEL             " FLOW TERMS FOR TIME STEP 75, STRESS PERIOD  3 READ UNFORMATTED ON UNIT 10
                    --------------------------------------------------------------------------------------------

                    "GHB             " FLOW TERMS FOR TIME STEP 75, STRESS PERIOD  3 READ UNFORMATTED ON UNIT 10
                    --------------------------------------------------------------------------------------------


 TOTAL NUMBER OF POINT SOURCES/SINKS PRESENT IN THE FLOW MODEL =    41

 MAXIMUM STEPSIZE WHICH MEETS STABILITY CRITERION OF THE SINK & SOURCE TERM
 =  90.00    (WHEN MIN. R.F.=1)  AT K=   1, I=   5, J=   5

 MAXIMUM STEPSIZE WHICH MEETS STABILITY CRITERION OF THE DISPERSION TERM
 =  267.6    (WHEN MIN. R.F.=1)  AT K=   1, I=   5, J=   5


     1 CALLS TO GCG PACKAGE FOR TRANSPORT TIME STEP   1 IN FLOW TIME STEP  75 STRESS PERIOD   3
     2 TOTAL ITERATIONS
  MAXIMUM CONCENTRATION CHANGES FOR EACH ITERATION:
  MAX. CHANGE LAYER,ROW,COL MAX. CHANGE LAYER,ROW,COL MAX. CHANGE LAYER,ROW,COL MAX. CHANGE LAYER,ROW,COL MAX. CHANGE LAYER,ROW,COL
 ------------------------------------------------------------------------------------------------------------------------------------
   0.3237E-02 (  1,  5,  5)  0.7276E-11 (  2,  4,  6)


                                          ================================================
                                                         TIME STEP NO.  076
                                          ================================================

 FROM TIME =   176.00     TO    177.00    


                    "THKSAT          " FLOW TERMS FOR TIME STEP 76, STRESS PERIOD  3 READ UNFORMATTED ON UNIT 10
                    --------------------------------------------------------------------------------------------

                    "QXX             " FLOW TERMS FOR TIME STEP 76, STRESS PERIOD  3 READ UNFORMATTED ON UNIT 10
                    --------------------------------------------------------------------------------------------

                    "QYY             " FLOW TERMS FOR TIME STEP 76, STRESS PERIOD  3 READ UNFORMATTED ON UNIT 10
                    --------------------------------------------------------------------------------------------

                    "QZZ             " FLOW TERMS FOR TIME STEP 76, STRESS PERIOD  3 READ UNFORMATTED ON UNIT 10
                    --------------------------------------------------------------------------------------------

                    "STO             " FLOW TERMS FOR TIME STEP 76, STRESS PERIOD  3 READ UNFORMATTED ON UNIT 10
                    --------------------------------------------------------------------------------------------

 MAXIMUM STEPSIZE DURING WHICH ANY PARTICLE CANNOT MOVE MORE THAN ONE CELL
 =  422.2    (WHEN MIN. R.F.=1)  AT K=   2, I=   5, J=   5

 MAXIMUM STEPSIZE WHICH MEETS STABILITY CRITERION OF THE ADVECTION TERM
 (FOR PURE FINITE-DIFFERENCE OPTION, MIXELM=0) 
 =  135.2    (WHEN MIN. R.F.=1)  AT K=   2, I=   5, J=   5

                    "CNH             " FLOW TERMS FOR TIME STEP 76, STRESS PERIOD  3 READ UNFORMATTED ON UNIT 10
                    --------------------------------------------------------------------------------------------

                    "WEL             " FLOW TERMS FOR TIME STEP 76, STRESS PERIOD  3 READ UNFORMATTED ON UNIT 10
                    --------------------------------------------------------------------------------------------

                    "GHB             " FLOW TERMS FOR TIME STEP 76, STRESS PERIOD  3 READ UNFORMATTED ON UNIT 10
                    --------------------------------------------------------------------------------------------


 TOTAL NUMBER OF POINT SOURCES/SINKS PRESENT IN THE FLOW MODEL =    41

 MAXIMUM STEPSIZE WHICH MEETS STABILITY CRITERION OF THE SINK & SOURCE TERM
 =  90.00    (WHEN MIN. R.F.=1)  AT K=   1, I=   5, J=   5

 MAXIMUM STEPSIZE WHICH MEETS STABILITY CRITERION OF THE DISPERSION TERM
 =  267.6    (WHEN MIN. R.F.=1)  AT K=   1, I=   5, J=   5


     1 CALLS TO GCG PACKAGE FOR TRANSPORT TIME STEP   1 IN FLOW TIME STEP  76 STRESS PERIOD   3
     2 TOTAL ITERATIONS
  MAXIMUM CONCENTRATION CHANGES FOR EACH ITERATION:
  MAX. CHANGE LAYER,ROW,COL MAX. CHANGE LAYER,ROW,COL MAX. CHANGE LAYER,ROW,COL MAX. CHANGE LAYER,ROW,COL MAX. CHANGE LAYER,ROW,COL
 ------------------------------------------------------------------------------------------------------------------------------------
   0.3186E-02 (  1,  5,  5)  0.1455E-10 (  2,  4,  6)


                                          ================================================
                                                         TIME STEP NO.  077
                                          ================================================

 FROM TIME =   177.00     TO    178.00    


                    "THKSAT          " FLOW TERMS FOR TIME STEP 77, STRESS PERIOD  3 READ UNFORMATTED ON UNIT 10
                    --------------------------------------------------------------------------------------------

                    "QXX             " FLOW TERMS FOR TIME STEP 77, STRESS PERIOD  3 READ UNFORMATTED ON UNIT 10
                    --------------------------------------------------------------------------------------------

                    "QYY             " FLOW TERMS FOR TIME STEP 77, STRESS PERIOD  3 READ UNFORMATTED ON UNIT 10
                    --------------------------------------------------------------------------------------------

                    "QZZ             " FLOW TERMS FOR TIME STEP 77, STRESS PERIOD  3 READ UNFORMATTED ON UNIT 10
                    --------------------------------------------------------------------------------------------

                    "STO             " FLOW TERMS FOR TIME STEP 77, STRESS PERIOD  3 READ UNFORMATTED ON UNIT 10
                    --------------------------------------------------------------------------------------------

 MAXIMUM STEPSIZE DURING WHICH ANY PARTICLE CANNOT MOVE MORE THAN ONE CELL
 =  422.2    (WHEN MIN. R.F.=1)  AT K=   2, I=   5, J=   5

 MAXIMUM STEPSIZE WHICH MEETS STABILITY CRITERION OF THE ADVECTION TERM
 (FOR PURE FINITE-DIFFERENCE OPTION, MIXELM=0) 
 =  135.2    (WHEN MIN. R.F.=1)  AT K=   2, I=   5, J=   5

                    "CNH             " FLOW TERMS FOR TIME STEP 77, STRESS PERIOD  3 READ UNFORMATTED ON UNIT 10
                    --------------------------------------------------------------------------------------------

                    "WEL             " FLOW TERMS FOR TIME STEP 77, STRESS PERIOD  3 READ UNFORMATTED ON UNIT 10
                    --------------------------------------------------------------------------------------------

                    "GHB             " FLOW TERMS FOR TIME STEP 77, STRESS PERIOD  3 READ UNFORMATTED ON UNIT 10
                    --------------------------------------------------------------------------------------------


 TOTAL NUMBER OF POINT SOURCES/SINKS PRESENT IN THE FLOW MODEL =    41

 MAXIMUM STEPSIZE WHICH MEETS STABILITY CRITERION OF THE SINK & SOURCE TERM
 =  90.00    (WHEN MIN. R.F.=1)  AT K=   1, I=   5, J=   5

 MAXIMUM STEPSIZE WHICH MEETS STABILITY CRITERION OF THE DISPERSION TERM
 =  267.6    (WHEN MIN. R.F.=1)  AT K=   1, I=   5, J=   5


     1 CALLS TO GCG PACKAGE FOR TRANSPORT TIME STEP   1 IN FLOW TIME STEP  77 STRESS PERIOD   3
     2 TOTAL ITERATIONS
  MAXIMUM CONCENTRATION CHANGES FOR EACH ITERATION:
  MAX. CHANGE LAYER,ROW,COL MAX. CHANGE LAYER,ROW,COL MAX. CHANGE LAYER,ROW,COL MAX. CHANGE LAYER,ROW,COL MAX. CHANGE LAYER,ROW,COL
 ------------------------------------------------------------------------------------------------------------------------------------
   0.3136E-02 (  1,  5,  5)  0.1455E-10 (  2,  4,  6)


                                          ================================================
                                                         TIME STEP NO.  078
                                          ================================================

 FROM TIME =   178.00     TO    179.00    


                    "THKSAT          " FLOW TERMS FOR TIME STEP 78, STRESS PERIOD  3 READ UNFORMATTED ON UNIT 10
                    --------------------------------------------------------------------------------------------

                    "QXX             " FLOW TERMS FOR TIME STEP 78, STRESS PERIOD  3 READ UNFORMATTED ON UNIT 10
                    --------------------------------------------------------------------------------------------

                    "QYY             " FLOW TERMS FOR TIME STEP 78, STRESS PERIOD  3 READ UNFORMATTED ON UNIT 10
                    --------------------------------------------------------------------------------------------

                    "QZZ             " FLOW TERMS FOR TIME STEP 78, STRESS PERIOD  3 READ UNFORMATTED ON UNIT 10
                    --------------------------------------------------------------------------------------------

                    "STO             " FLOW TERMS FOR TIME STEP 78, STRESS PERIOD  3 READ UNFORMATTED ON UNIT 10
                    --------------------------------------------------------------------------------------------

 MAXIMUM STEPSIZE DURING WHICH ANY PARTICLE CANNOT MOVE MORE THAN ONE CELL
 =  422.2    (WHEN MIN. R.F.=1)  AT K=   2, I=   5, J=   5

 MAXIMUM STEPSIZE WHICH MEETS STABILITY CRITERION OF THE ADVECTION TERM
 (FOR PURE FINITE-DIFFERENCE OPTION, MIXELM=0) 
 =  135.1    (WHEN MIN. R.F.=1)  AT K=   2, I=   5, J=   5

                    "CNH             " FLOW TERMS FOR TIME STEP 78, STRESS PERIOD  3 READ UNFORMATTED ON UNIT 10
                    --------------------------------------------------------------------------------------------

                    "WEL             " FLOW TERMS FOR TIME STEP 78, STRESS PERIOD  3 READ UNFORMATTED ON UNIT 10
                    --------------------------------------------------------------------------------------------

                    "GHB             " FLOW TERMS FOR TIME STEP 78, STRESS PERIOD  3 READ UNFORMATTED ON UNIT 10
                    --------------------------------------------------------------------------------------------


 TOTAL NUMBER OF POINT SOURCES/SINKS PRESENT IN THE FLOW MODEL =    41

 MAXIMUM STEPSIZE WHICH MEETS STABILITY CRITERION OF THE SINK & SOURCE TERM
 =  90.00    (WHEN MIN. R.F.=1)  AT K=   1, I=   5, J=   5

 MAXIMUM STEPSIZE WHICH MEETS STABILITY CRITERION OF THE DISPERSION TERM
 =  267.6    (WHEN MIN. R.F.=1)  AT K=   1, I=   5, J=   5


     1 CALLS TO GCG PACKAGE FOR TRANSPORT TIME STEP   1 IN FLOW TIME STEP  78 STRESS PERIOD   3
     2 TOTAL ITERATIONS
  MAXIMUM CONCENTRATION CHANGES FOR EACH ITERATION:
  MAX. CHANGE LAYER,ROW,COL MAX. CHANGE LAYER,ROW,COL MAX. CHANGE LAYER,ROW,COL MAX. CHANGE LAYER,ROW,COL MAX. CHANGE LAYER,ROW,COL
 ------------------------------------------------------------------------------------------------------------------------------------
   0.3087E-02 (  1,  5,  5)  0.1455E-10 (  2,  4,  6)


                                          ================================================
                                                         TIME STEP NO.  079
                                          ================================================

 FROM TIME =   179.00     TO    180.00    


                    "THKSAT          " FLOW TERMS FOR TIME STEP 79, STRESS PERIOD  3 READ UNFORMATTED ON UNIT 10
                    --------------------------------------------------------------------------------------------

                    "QXX             " FLOW TERMS FOR TIME STEP 79, STRESS PERIOD  3 READ UNFORMATTED ON UNIT 10
                    --------------------------------------------------------------------------------------------

                    "QYY             " FLOW TERMS FOR TIME STEP 79, STRESS PERIOD  3 READ UNFORMATTED ON UNIT 10
                    --------------------------------------------------------------------------------------------

                    "QZZ             " FLOW TERMS FOR TIME STEP 79, STRESS PERIOD  3 READ UNFORMATTED ON UNIT 10
                    --------------------------------------------------------------------------------------------

                    "STO             " FLOW TERMS FOR TIME STEP 79, STRESS PERIOD  3 READ UNFORMATTED ON UNIT 10
                    --------------------------------------------------------------------------------------------

 MAXIMUM STEPSIZE DURING WHICH ANY PARTICLE CANNOT MOVE MORE THAN ONE CELL
 =  422.2    (WHEN MIN. R.F.=1)  AT K=   2, I=   5, J=   5

 MAXIMUM STEPSIZE WHICH MEETS STABILITY CRITERION OF THE ADVECTION TERM
 (FOR PURE FINITE-DIFFERENCE OPTION, MIXELM=0) 
 =  135.1    (WHEN MIN. R.F.=1)  AT K=   2, I=   5, J=   5

                    "CNH             " FLOW TERMS FOR TIME STEP 79, STRESS PERIOD  3 READ UNFORMATTED ON UNIT 10
                    --------------------------------------------------------------------------------------------

                    "WEL             " FLOW TERMS FOR TIME STEP 79, STRESS PERIOD  3 READ UNFORMATTED ON UNIT 10
                    --------------------------------------------------------------------------------------------

                    "GHB             " FLOW TERMS FOR TIME STEP 79, STRESS PERIOD  3 READ UNFORMATTED ON UNIT 10
                    --------------------------------------------------------------------------------------------


 TOTAL NUMBER OF POINT SOURCES/SINKS PRESENT IN THE FLOW MODEL =    41

 MAXIMUM STEPSIZE WHICH MEETS STABILITY CRITERION OF THE SINK & SOURCE TERM
 =  90.00    (WHEN MIN. R.F.=1)  AT K=   1, I=   5, J=   5

 MAXIMUM STEPSIZE WHICH MEETS STABILITY CRITERION OF THE DISPERSION TERM
 =  267.6    (WHEN MIN. R.F.=1)  AT K=   1, I=   5, J=   5


     1 CALLS TO GCG PACKAGE FOR TRANSPORT TIME STEP   1 IN FLOW TIME STEP  79 STRESS PERIOD   3
     2 TOTAL ITERATIONS
  MAXIMUM CONCENTRATION CHANGES FOR EACH ITERATION:
  MAX. CHANGE LAYER,ROW,COL MAX. CHANGE LAYER,ROW,COL MAX. CHANGE LAYER,ROW,COL MAX. CHANGE LAYER,ROW,COL MAX. CHANGE LAYER,ROW,COL
 ------------------------------------------------------------------------------------------------------------------------------------
   0.3039E-02 (  1,  5,  5)  0.1455E-10 (  2,  4,  6)


                                          ================================================
                                                         TIME STEP NO.  080
                                          ================================================

 FROM TIME =   180.00     TO    181.00    


                    "THKSAT          " FLOW TERMS FOR TIME STEP 80, STRESS PERIOD  3 READ UNFORMATTED ON UNIT 10
                    --------------------------------------------------------------------------------------------

                    "QXX             " FLOW TERMS FOR TIME STEP 80, STRESS PERIOD  3 READ UNFORMATTED ON UNIT 10
                    --------------------------------------------------------------------------------------------

                    "QYY             " FLOW TERMS FOR TIME STEP 80, STRESS PERIOD  3 READ UNFORMATTED ON UNIT 10
                    --------------------------------------------------------------------------------------------

                    "QZZ             " FLOW TERMS FOR TIME STEP 80, STRESS PERIOD  3 READ UNFORMATTED ON UNIT 10
                    --------------------------------------------------------------------------------------------

                    "STO             " FLOW TERMS FOR TIME STEP 80, STRESS PERIOD  3 READ UNFORMATTED ON UNIT 10
                    --------------------------------------------------------------------------------------------

 MAXIMUM STEPSIZE DURING WHICH ANY PARTICLE CANNOT MOVE MORE THAN ONE CELL
 =  422.2    (WHEN MIN. R.F.=1)  AT K=   2, I=   5, J=   5

 MAXIMUM STEPSIZE WHICH MEETS STABILITY CRITERION OF THE ADVECTION TERM
 (FOR PURE FINITE-DIFFERENCE OPTION, MIXELM=0) 
 =  135.1    (WHEN MIN. R.F.=1)  AT K=   2, I=   5, J=   5

                    "CNH             " FLOW TERMS FOR TIME STEP 80, STRESS PERIOD  3 READ UNFORMATTED ON UNIT 10
                    --------------------------------------------------------------------------------------------

                    "WEL             " FLOW TERMS FOR TIME STEP 80, STRESS PERIOD  3 READ UNFORMATTED ON UNIT 10
                    --------------------------------------------------------------------------------------------

                    "GHB             " FLOW TERMS FOR TIME STEP 80, STRESS PERIOD  3 READ UNFORMATTED ON UNIT 10
                    --------------------------------------------------------------------------------------------


 TOTAL NUMBER OF POINT SOURCES/SINKS PRESENT IN THE FLOW MODEL =    41

 MAXIMUM STEPSIZE WHICH MEETS STABILITY CRITERION OF THE SINK & SOURCE TERM
 =  90.00    (WHEN MIN. R.F.=1)  AT K=   1, I=   5, J=   5

 MAXIMUM STEPSIZE WHICH MEETS STABILITY CRITERION OF THE DISPERSION TERM
 =  267.6    (WHEN MIN. R.F.=1)  AT K=   1, I=   5, J=   5


     1 CALLS TO GCG PACKAGE FOR TRANSPORT TIME STEP   1 IN FLOW TIME STEP  80 STRESS PERIOD   3
     2 TOTAL ITERATIONS
  MAXIMUM CONCENTRATION CHANGES FOR EACH ITERATION:
  MAX. CHANGE LAYER,ROW,COL MAX. CHANGE LAYER,ROW,COL MAX. CHANGE LAYER,ROW,COL MAX. CHANGE LAYER,ROW,COL MAX. CHANGE LAYER,ROW,COL
 ------------------------------------------------------------------------------------------------------------------------------------
   0.2992E-02 (  1,  5,  5)  0.1455E-10 (  2,  4,  6)


                                          ================================================
                                                         TIME STEP NO.  081
                                          ================================================

 FROM TIME =   181.00     TO    182.00    


                    "THKSAT          " FLOW TERMS FOR TIME STEP 81, STRESS PERIOD  3 READ UNFORMATTED ON UNIT 10
                    --------------------------------------------------------------------------------------------

                    "QXX             " FLOW TERMS FOR TIME STEP 81, STRESS PERIOD  3 READ UNFORMATTED ON UNIT 10
                    --------------------------------------------------------------------------------------------

                    "QYY             " FLOW TERMS FOR TIME STEP 81, STRESS PERIOD  3 READ UNFORMATTED ON UNIT 10
                    --------------------------------------------------------------------------------------------

                    "QZZ             " FLOW TERMS FOR TIME STEP 81, STRESS PERIOD  3 READ UNFORMATTED ON UNIT 10
                    --------------------------------------------------------------------------------------------

                    "STO             " FLOW TERMS FOR TIME STEP 81, STRESS PERIOD  3 READ UNFORMATTED ON UNIT 10
                    --------------------------------------------------------------------------------------------

 MAXIMUM STEPSIZE DURING WHICH ANY PARTICLE CANNOT MOVE MORE THAN ONE CELL
 =  422.2    (WHEN MIN. R.F.=1)  AT K=   2, I=   5, J=   5

 MAXIMUM STEPSIZE WHICH MEETS STABILITY CRITERION OF THE ADVECTION TERM
 (FOR PURE FINITE-DIFFERENCE OPTION, MIXELM=0) 
 =  135.1    (WHEN MIN. R.F.=1)  AT K=   2, I=   5, J=   5

                    "CNH             " FLOW TERMS FOR TIME STEP 81, STRESS PERIOD  3 READ UNFORMATTED ON UNIT 10
                    --------------------------------------------------------------------------------------------

                    "WEL             " FLOW TERMS FOR TIME STEP 81, STRESS PERIOD  3 READ UNFORMATTED ON UNIT 10
                    --------------------------------------------------------------------------------------------

                    "GHB             " FLOW TERMS FOR TIME STEP 81, STRESS PERIOD  3 READ UNFORMATTED ON UNIT 10
                    --------------------------------------------------------------------------------------------


 TOTAL NUMBER OF POINT SOURCES/SINKS PRESENT IN THE FLOW MODEL =    41

 MAXIMUM STEPSIZE WHICH MEETS STABILITY CRITERION OF THE SINK & SOURCE TERM
 =  90.00    (WHEN MIN. R.F.=1)  AT K=   1, I=   5, J=   5

 MAXIMUM STEPSIZE WHICH MEETS STABILITY CRITERION OF THE DISPERSION TERM
 =  267.6    (WHEN MIN. R.F.=1)  AT K=   1, I=   5, J=   5


     1 CALLS TO GCG PACKAGE FOR TRANSPORT TIME STEP   1 IN FLOW TIME STEP  81 STRESS PERIOD   3
     2 TOTAL ITERATIONS
  MAXIMUM CONCENTRATION CHANGES FOR EACH ITERATION:
  MAX. CHANGE LAYER,ROW,COL MAX. CHANGE LAYER,ROW,COL MAX. CHANGE LAYER,ROW,COL MAX. CHANGE LAYER,ROW,COL MAX. CHANGE LAYER,ROW,COL
 ------------------------------------------------------------------------------------------------------------------------------------
   0.2945E-02 (  1,  5,  5)  0.1455E-10 (  2,  4,  6)


                                          ================================================
                                                         TIME STEP NO.  082
                                          ================================================

 FROM TIME =   182.00     TO    183.00    


                    "THKSAT          " FLOW TERMS FOR TIME STEP 82, STRESS PERIOD  3 READ UNFORMATTED ON UNIT 10
                    --------------------------------------------------------------------------------------------

                    "QXX             " FLOW TERMS FOR TIME STEP 82, STRESS PERIOD  3 READ UNFORMATTED ON UNIT 10
                    --------------------------------------------------------------------------------------------

                    "QYY             " FLOW TERMS FOR TIME STEP 82, STRESS PERIOD  3 READ UNFORMATTED ON UNIT 10
                    --------------------------------------------------------------------------------------------

                    "QZZ             " FLOW TERMS FOR TIME STEP 82, STRESS PERIOD  3 READ UNFORMATTED ON UNIT 10
                    --------------------------------------------------------------------------------------------

                    "STO             " FLOW TERMS FOR TIME STEP 82, STRESS PERIOD  3 READ UNFORMATTED ON UNIT 10
                    --------------------------------------------------------------------------------------------

 MAXIMUM STEPSIZE DURING WHICH ANY PARTICLE CANNOT MOVE MORE THAN ONE CELL
 =  422.2    (WHEN MIN. R.F.=1)  AT K=   2, I=   5, J=   5

 MAXIMUM STEPSIZE WHICH MEETS STABILITY CRITERION OF THE ADVECTION TERM
 (FOR PURE FINITE-DIFFERENCE OPTION, MIXELM=0) 
 =  135.1    (WHEN MIN. R.F.=1)  AT K=   2, I=   5, J=   5

                    "CNH             " FLOW TERMS FOR TIME STEP 82, STRESS PERIOD  3 READ UNFORMATTED ON UNIT 10
                    --------------------------------------------------------------------------------------------

                    "WEL             " FLOW TERMS FOR TIME STEP 82, STRESS PERIOD  3 READ UNFORMATTED ON UNIT 10
                    --------------------------------------------------------------------------------------------

                    "GHB             " FLOW TERMS FOR TIME STEP 82, STRESS PERIOD  3 READ UNFORMATTED ON UNIT 10
                    --------------------------------------------------------------------------------------------


 TOTAL NUMBER OF POINT SOURCES/SINKS PRESENT IN THE FLOW MODEL =    41

 MAXIMUM STEPSIZE WHICH MEETS STABILITY CRITERION OF THE SINK & SOURCE TERM
 =  90.00    (WHEN MIN. R.F.=1)  AT K=   1, I=   5, J=   5

 MAXIMUM STEPSIZE WHICH MEETS STABILITY CRITERION OF THE DISPERSION TERM
 =  267.6    (WHEN MIN. R.F.=1)  AT K=   1, I=   5, J=   5


     1 CALLS TO GCG PACKAGE FOR TRANSPORT TIME STEP   1 IN FLOW TIME STEP  82 STRESS PERIOD   3
     2 TOTAL ITERATIONS
  MAXIMUM CONCENTRATION CHANGES FOR EACH ITERATION:
  MAX. CHANGE LAYER,ROW,COL MAX. CHANGE LAYER,ROW,COL MAX. CHANGE LAYER,ROW,COL MAX. CHANGE LAYER,ROW,COL MAX. CHANGE LAYER,ROW,COL
 ------------------------------------------------------------------------------------------------------------------------------------
   0.2900E-02 (  1,  5,  5)  0.1455E-10 (  2,  4,  6)


                                          ================================================
                                                         TIME STEP NO.  083
                                          ================================================

 FROM TIME =   183.00     TO    184.00    


                    "THKSAT          " FLOW TERMS FOR TIME STEP 83, STRESS PERIOD  3 READ UNFORMATTED ON UNIT 10
                    --------------------------------------------------------------------------------------------

                    "QXX             " FLOW TERMS FOR TIME STEP 83, STRESS PERIOD  3 READ UNFORMATTED ON UNIT 10
                    --------------------------------------------------------------------------------------------

                    "QYY             " FLOW TERMS FOR TIME STEP 83, STRESS PERIOD  3 READ UNFORMATTED ON UNIT 10
                    --------------------------------------------------------------------------------------------

                    "QZZ             " FLOW TERMS FOR TIME STEP 83, STRESS PERIOD  3 READ UNFORMATTED ON UNIT 10
                    --------------------------------------------------------------------------------------------

                    "STO             " FLOW TERMS FOR TIME STEP 83, STRESS PERIOD  3 READ UNFORMATTED ON UNIT 10
                    --------------------------------------------------------------------------------------------

 MAXIMUM STEPSIZE DURING WHICH ANY PARTICLE CANNOT MOVE MORE THAN ONE CELL
 =  422.2    (WHEN MIN. R.F.=1)  AT K=   2, I=   5, J=   5

 MAXIMUM STEPSIZE WHICH MEETS STABILITY CRITERION OF THE ADVECTION TERM
 (FOR PURE FINITE-DIFFERENCE OPTION, MIXELM=0) 
 =  135.1    (WHEN MIN. R.F.=1)  AT K=   2, I=   5, J=   5

                    "CNH             " FLOW TERMS FOR TIME STEP 83, STRESS PERIOD  3 READ UNFORMATTED ON UNIT 10
                    --------------------------------------------------------------------------------------------

                    "WEL             " FLOW TERMS FOR TIME STEP 83, STRESS PERIOD  3 READ UNFORMATTED ON UNIT 10
                    --------------------------------------------------------------------------------------------

                    "GHB             " FLOW TERMS FOR TIME STEP 83, STRESS PERIOD  3 READ UNFORMATTED ON UNIT 10
                    --------------------------------------------------------------------------------------------


 TOTAL NUMBER OF POINT SOURCES/SINKS PRESENT IN THE FLOW MODEL =    41

 MAXIMUM STEPSIZE WHICH MEETS STABILITY CRITERION OF THE SINK & SOURCE TERM
 =  90.00    (WHEN MIN. R.F.=1)  AT K=   1, I=   5, J=   5

 MAXIMUM STEPSIZE WHICH MEETS STABILITY CRITERION OF THE DISPERSION TERM
 =  267.6    (WHEN MIN. R.F.=1)  AT K=   1, I=   5, J=   5


     1 CALLS TO GCG PACKAGE FOR TRANSPORT TIME STEP   1 IN FLOW TIME STEP  83 STRESS PERIOD   3
     2 TOTAL ITERATIONS
  MAXIMUM CONCENTRATION CHANGES FOR EACH ITERATION:
  MAX. CHANGE LAYER,ROW,COL MAX. CHANGE LAYER,ROW,COL MAX. CHANGE LAYER,ROW,COL MAX. CHANGE LAYER,ROW,COL MAX. CHANGE LAYER,ROW,COL
 ------------------------------------------------------------------------------------------------------------------------------------
   0.2855E-02 (  1,  5,  5)  0.1455E-10 (  2,  4,  6)


                                          ================================================
                                                         TIME STEP NO.  084
                                          ================================================

 FROM TIME =   184.00     TO    185.00    


                    "THKSAT          " FLOW TERMS FOR TIME STEP 84, STRESS PERIOD  3 READ UNFORMATTED ON UNIT 10
                    --------------------------------------------------------------------------------------------

                    "QXX             " FLOW TERMS FOR TIME STEP 84, STRESS PERIOD  3 READ UNFORMATTED ON UNIT 10
                    --------------------------------------------------------------------------------------------

                    "QYY             " FLOW TERMS FOR TIME STEP 84, STRESS PERIOD  3 READ UNFORMATTED ON UNIT 10
                    --------------------------------------------------------------------------------------------

                    "QZZ             " FLOW TERMS FOR TIME STEP 84, STRESS PERIOD  3 READ UNFORMATTED ON UNIT 10
                    --------------------------------------------------------------------------------------------

                    "STO             " FLOW TERMS FOR TIME STEP 84, STRESS PERIOD  3 READ UNFORMATTED ON UNIT 10
                    --------------------------------------------------------------------------------------------

 MAXIMUM STEPSIZE DURING WHICH ANY PARTICLE CANNOT MOVE MORE THAN ONE CELL
 =  422.2    (WHEN MIN. R.F.=1)  AT K=   2, I=   5, J=   5

 MAXIMUM STEPSIZE WHICH MEETS STABILITY CRITERION OF THE ADVECTION TERM
 (FOR PURE FINITE-DIFFERENCE OPTION, MIXELM=0) 
 =  135.1    (WHEN MIN. R.F.=1)  AT K=   2, I=   5, J=   5

                    "CNH             " FLOW TERMS FOR TIME STEP 84, STRESS PERIOD  3 READ UNFORMATTED ON UNIT 10
                    --------------------------------------------------------------------------------------------

                    "WEL             " FLOW TERMS FOR TIME STEP 84, STRESS PERIOD  3 READ UNFORMATTED ON UNIT 10
                    --------------------------------------------------------------------------------------------

                    "GHB             " FLOW TERMS FOR TIME STEP 84, STRESS PERIOD  3 READ UNFORMATTED ON UNIT 10
                    --------------------------------------------------------------------------------------------


 TOTAL NUMBER OF POINT SOURCES/SINKS PRESENT IN THE FLOW MODEL =    41

 MAXIMUM STEPSIZE WHICH MEETS STABILITY CRITERION OF THE SINK & SOURCE TERM
 =  90.00    (WHEN MIN. R.F.=1)  AT K=   1, I=   5, J=   5

 MAXIMUM STEPSIZE WHICH MEETS STABILITY CRITERION OF THE DISPERSION TERM
 =  267.6    (WHEN MIN. R.F.=1)  AT K=   1, I=   5, J=   5


     1 CALLS TO GCG PACKAGE FOR TRANSPORT TIME STEP   1 IN FLOW TIME STEP  84 STRESS PERIOD   3
     2 TOTAL ITERATIONS
  MAXIMUM CONCENTRATION CHANGES FOR EACH ITERATION:
  MAX. CHANGE LAYER,ROW,COL MAX. CHANGE LAYER,ROW,COL MAX. CHANGE LAYER,ROW,COL MAX. CHANGE LAYER,ROW,COL MAX. CHANGE LAYER,ROW,COL
 ------------------------------------------------------------------------------------------------------------------------------------
   0.2812E-02 (  1,  5,  5)  0.1455E-10 (  2,  4,  6)


                                          ================================================
                                                         TIME STEP NO.  085
                                          ================================================

 FROM TIME =   185.00     TO    186.00    


                    "THKSAT          " FLOW TERMS FOR TIME STEP 85, STRESS PERIOD  3 READ UNFORMATTED ON UNIT 10
                    --------------------------------------------------------------------------------------------

                    "QXX             " FLOW TERMS FOR TIME STEP 85, STRESS PERIOD  3 READ UNFORMATTED ON UNIT 10
                    --------------------------------------------------------------------------------------------

                    "QYY             " FLOW TERMS FOR TIME STEP 85, STRESS PERIOD  3 READ UNFORMATTED ON UNIT 10
                    --------------------------------------------------------------------------------------------

                    "QZZ             " FLOW TERMS FOR TIME STEP 85, STRESS PERIOD  3 READ UNFORMATTED ON UNIT 10
                    --------------------------------------------------------------------------------------------

                    "STO             " FLOW TERMS FOR TIME STEP 85, STRESS PERIOD  3 READ UNFORMATTED ON UNIT 10
                    --------------------------------------------------------------------------------------------

 MAXIMUM STEPSIZE DURING WHICH ANY PARTICLE CANNOT MOVE MORE THAN ONE CELL
 =  422.2    (WHEN MIN. R.F.=1)  AT K=   2, I=   5, J=   5

 MAXIMUM STEPSIZE WHICH MEETS STABILITY CRITERION OF THE ADVECTION TERM
 (FOR PURE FINITE-DIFFERENCE OPTION, MIXELM=0) 
 =  135.1    (WHEN MIN. R.F.=1)  AT K=   2, I=   5, J=   5

                    "CNH             " FLOW TERMS FOR TIME STEP 85, STRESS PERIOD  3 READ UNFORMATTED ON UNIT 10
                    --------------------------------------------------------------------------------------------

                    "WEL             " FLOW TERMS FOR TIME STEP 85, STRESS PERIOD  3 READ UNFORMATTED ON UNIT 10
                    --------------------------------------------------------------------------------------------

                    "GHB             " FLOW TERMS FOR TIME STEP 85, STRESS PERIOD  3 READ UNFORMATTED ON UNIT 10
                    --------------------------------------------------------------------------------------------


 TOTAL NUMBER OF POINT SOURCES/SINKS PRESENT IN THE FLOW MODEL =    41

 MAXIMUM STEPSIZE WHICH MEETS STABILITY CRITERION OF THE SINK & SOURCE TERM
 =  90.00    (WHEN MIN. R.F.=1)  AT K=   1, I=   5, J=   5

 MAXIMUM STEPSIZE WHICH MEETS STABILITY CRITERION OF THE DISPERSION TERM
 =  267.6    (WHEN MIN. R.F.=1)  AT K=   1, I=   5, J=   5


     1 CALLS TO GCG PACKAGE FOR TRANSPORT TIME STEP   1 IN FLOW TIME STEP  85 STRESS PERIOD   3
     2 TOTAL ITERATIONS
  MAXIMUM CONCENTRATION CHANGES FOR EACH ITERATION:
  MAX. CHANGE LAYER,ROW,COL MAX. CHANGE LAYER,ROW,COL MAX. CHANGE LAYER,ROW,COL MAX. CHANGE LAYER,ROW,COL MAX. CHANGE LAYER,ROW,COL
 ------------------------------------------------------------------------------------------------------------------------------------
   0.2769E-02 (  1,  5,  5)  0.1455E-10 (  2,  4,  6)


                                          ================================================
                                                         TIME STEP NO.  086
                                          ================================================

 FROM TIME =   186.00     TO    187.00    


                    "THKSAT          " FLOW TERMS FOR TIME STEP 86, STRESS PERIOD  3 READ UNFORMATTED ON UNIT 10
                    --------------------------------------------------------------------------------------------

                    "QXX             " FLOW TERMS FOR TIME STEP 86, STRESS PERIOD  3 READ UNFORMATTED ON UNIT 10
                    --------------------------------------------------------------------------------------------

                    "QYY             " FLOW TERMS FOR TIME STEP 86, STRESS PERIOD  3 READ UNFORMATTED ON UNIT 10
                    --------------------------------------------------------------------------------------------

                    "QZZ             " FLOW TERMS FOR TIME STEP 86, STRESS PERIOD  3 READ UNFORMATTED ON UNIT 10
                    --------------------------------------------------------------------------------------------

                    "STO             " FLOW TERMS FOR TIME STEP 86, STRESS PERIOD  3 READ UNFORMATTED ON UNIT 10
                    --------------------------------------------------------------------------------------------

 MAXIMUM STEPSIZE DURING WHICH ANY PARTICLE CANNOT MOVE MORE THAN ONE CELL
 =  422.2    (WHEN MIN. R.F.=1)  AT K=   2, I=   5, J=   5

 MAXIMUM STEPSIZE WHICH MEETS STABILITY CRITERION OF THE ADVECTION TERM
 (FOR PURE FINITE-DIFFERENCE OPTION, MIXELM=0) 
 =  135.1    (WHEN MIN. R.F.=1)  AT K=   2, I=   5, J=   5

                    "CNH             " FLOW TERMS FOR TIME STEP 86, STRESS PERIOD  3 READ UNFORMATTED ON UNIT 10
                    --------------------------------------------------------------------------------------------

                    "WEL             " FLOW TERMS FOR TIME STEP 86, STRESS PERIOD  3 READ UNFORMATTED ON UNIT 10
                    --------------------------------------------------------------------------------------------

                    "GHB             " FLOW TERMS FOR TIME STEP 86, STRESS PERIOD  3 READ UNFORMATTED ON UNIT 10
                    --------------------------------------------------------------------------------------------


 TOTAL NUMBER OF POINT SOURCES/SINKS PRESENT IN THE FLOW MODEL =    41

 MAXIMUM STEPSIZE WHICH MEETS STABILITY CRITERION OF THE SINK & SOURCE TERM
 =  90.00    (WHEN MIN. R.F.=1)  AT K=   1, I=   5, J=   5

 MAXIMUM STEPSIZE WHICH MEETS STABILITY CRITERION OF THE DISPERSION TERM
 =  267.6    (WHEN MIN. R.F.=1)  AT K=   1, I=   5, J=   5


     1 CALLS TO GCG PACKAGE FOR TRANSPORT TIME STEP   1 IN FLOW TIME STEP  86 STRESS PERIOD   3
     2 TOTAL ITERATIONS
  MAXIMUM CONCENTRATION CHANGES FOR EACH ITERATION:
  MAX. CHANGE LAYER,ROW,COL MAX. CHANGE LAYER,ROW,COL MAX. CHANGE LAYER,ROW,COL MAX. CHANGE LAYER,ROW,COL MAX. CHANGE LAYER,ROW,COL
 ------------------------------------------------------------------------------------------------------------------------------------
   0.2727E-02 (  1,  5,  5)  0.1455E-10 (  2,  4,  6)


                                          ================================================
                                                         TIME STEP NO.  087
                                          ================================================

 FROM TIME =   187.00     TO    188.00    


                    "THKSAT          " FLOW TERMS FOR TIME STEP 87, STRESS PERIOD  3 READ UNFORMATTED ON UNIT 10
                    --------------------------------------------------------------------------------------------

                    "QXX             " FLOW TERMS FOR TIME STEP 87, STRESS PERIOD  3 READ UNFORMATTED ON UNIT 10
                    --------------------------------------------------------------------------------------------

                    "QYY             " FLOW TERMS FOR TIME STEP 87, STRESS PERIOD  3 READ UNFORMATTED ON UNIT 10
                    --------------------------------------------------------------------------------------------

                    "QZZ             " FLOW TERMS FOR TIME STEP 87, STRESS PERIOD  3 READ UNFORMATTED ON UNIT 10
                    --------------------------------------------------------------------------------------------

                    "STO             " FLOW TERMS FOR TIME STEP 87, STRESS PERIOD  3 READ UNFORMATTED ON UNIT 10
                    --------------------------------------------------------------------------------------------

 MAXIMUM STEPSIZE DURING WHICH ANY PARTICLE CANNOT MOVE MORE THAN ONE CELL
 =  422.2    (WHEN MIN. R.F.=1)  AT K=   2, I=   5, J=   5

 MAXIMUM STEPSIZE WHICH MEETS STABILITY CRITERION OF THE ADVECTION TERM
 (FOR PURE FINITE-DIFFERENCE OPTION, MIXELM=0) 
 =  135.1    (WHEN MIN. R.F.=1)  AT K=   2, I=   5, J=   5

                    "CNH             " FLOW TERMS FOR TIME STEP 87, STRESS PERIOD  3 READ UNFORMATTED ON UNIT 10
                    --------------------------------------------------------------------------------------------

                    "WEL             " FLOW TERMS FOR TIME STEP 87, STRESS PERIOD  3 READ UNFORMATTED ON UNIT 10
                    --------------------------------------------------------------------------------------------

                    "GHB             " FLOW TERMS FOR TIME STEP 87, STRESS PERIOD  3 READ UNFORMATTED ON UNIT 10
                    --------------------------------------------------------------------------------------------


 TOTAL NUMBER OF POINT SOURCES/SINKS PRESENT IN THE FLOW MODEL =    41

 MAXIMUM STEPSIZE WHICH MEETS STABILITY CRITERION OF THE SINK & SOURCE TERM
 =  90.00    (WHEN MIN. R.F.=1)  AT K=   1, I=   5, J=   5

 MAXIMUM STEPSIZE WHICH MEETS STABILITY CRITERION OF THE DISPERSION TERM
 =  267.6    (WHEN MIN. R.F.=1)  AT K=   1, I=   5, J=   5


     1 CALLS TO GCG PACKAGE FOR TRANSPORT TIME STEP   1 IN FLOW TIME STEP  87 STRESS PERIOD   3
     2 TOTAL ITERATIONS
  MAXIMUM CONCENTRATION CHANGES FOR EACH ITERATION:
  MAX. CHANGE LAYER,ROW,COL MAX. CHANGE LAYER,ROW,COL MAX. CHANGE LAYER,ROW,COL MAX. CHANGE LAYER,ROW,COL MAX. CHANGE LAYER,ROW,COL
 ------------------------------------------------------------------------------------------------------------------------------------
   0.2685E-02 (  1,  5,  5)  0.1455E-10 (  2,  4,  6)


                                          ================================================
                                                         TIME STEP NO.  088
                                          ================================================

 FROM TIME =   188.00     TO    189.00    


                    "THKSAT          " FLOW TERMS FOR TIME STEP 88, STRESS PERIOD  3 READ UNFORMATTED ON UNIT 10
                    --------------------------------------------------------------------------------------------

                    "QXX             " FLOW TERMS FOR TIME STEP 88, STRESS PERIOD  3 READ UNFORMATTED ON UNIT 10
                    --------------------------------------------------------------------------------------------

                    "QYY             " FLOW TERMS FOR TIME STEP 88, STRESS PERIOD  3 READ UNFORMATTED ON UNIT 10
                    --------------------------------------------------------------------------------------------

                    "QZZ             " FLOW TERMS FOR TIME STEP 88, STRESS PERIOD  3 READ UNFORMATTED ON UNIT 10
                    --------------------------------------------------------------------------------------------

                    "STO             " FLOW TERMS FOR TIME STEP 88, STRESS PERIOD  3 READ UNFORMATTED ON UNIT 10
                    --------------------------------------------------------------------------------------------

 MAXIMUM STEPSIZE DURING WHICH ANY PARTICLE CANNOT MOVE MORE THAN ONE CELL
 =  422.2    (WHEN MIN. R.F.=1)  AT K=   2, I=   5, J=   5

 MAXIMUM STEPSIZE WHICH MEETS STABILITY CRITERION OF THE ADVECTION TERM
 (FOR PURE FINITE-DIFFERENCE OPTION, MIXELM=0) 
 =  135.1    (WHEN MIN. R.F.=1)  AT K=   2, I=   5, J=   5

                    "CNH             " FLOW TERMS FOR TIME STEP 88, STRESS PERIOD  3 READ UNFORMATTED ON UNIT 10
                    --------------------------------------------------------------------------------------------

                    "WEL             " FLOW TERMS FOR TIME STEP 88, STRESS PERIOD  3 READ UNFORMATTED ON UNIT 10
                    --------------------------------------------------------------------------------------------

                    "GHB             " FLOW TERMS FOR TIME STEP 88, STRESS PERIOD  3 READ UNFORMATTED ON UNIT 10
                    --------------------------------------------------------------------------------------------


 TOTAL NUMBER OF POINT SOURCES/SINKS PRESENT IN THE FLOW MODEL =    41

 MAXIMUM STEPSIZE WHICH MEETS STABILITY CRITERION OF THE SINK & SOURCE TERM
 =  90.00    (WHEN MIN. R.F.=1)  AT K=   1, I=   5, J=   5

 MAXIMUM STEPSIZE WHICH MEETS STABILITY CRITERION OF THE DISPERSION TERM
 =  267.6    (WHEN MIN. R.F.=1)  AT K=   1, I=   5, J=   5


     1 CALLS TO GCG PACKAGE FOR TRANSPORT TIME STEP   1 IN FLOW TIME STEP  88 STRESS PERIOD   3
     2 TOTAL ITERATIONS
  MAXIMUM CONCENTRATION CHANGES FOR EACH ITERATION:
  MAX. CHANGE LAYER,ROW,COL MAX. CHANGE LAYER,ROW,COL MAX. CHANGE LAYER,ROW,COL MAX. CHANGE LAYER,ROW,COL MAX. CHANGE LAYER,ROW,COL
 ------------------------------------------------------------------------------------------------------------------------------------
   0.2645E-02 (  1,  5,  5)  0.1455E-10 (  2,  4,  6)


                                          ================================================
                                                         TIME STEP NO.  089
                                          ================================================

 FROM TIME =   189.00     TO    190.00    


                    "THKSAT          " FLOW TERMS FOR TIME STEP 89, STRESS PERIOD  3 READ UNFORMATTED ON UNIT 10
                    --------------------------------------------------------------------------------------------

                    "QXX             " FLOW TERMS FOR TIME STEP 89, STRESS PERIOD  3 READ UNFORMATTED ON UNIT 10
                    --------------------------------------------------------------------------------------------

                    "QYY             " FLOW TERMS FOR TIME STEP 89, STRESS PERIOD  3 READ UNFORMATTED ON UNIT 10
                    --------------------------------------------------------------------------------------------

                    "QZZ             " FLOW TERMS FOR TIME STEP 89, STRESS PERIOD  3 READ UNFORMATTED ON UNIT 10
                    --------------------------------------------------------------------------------------------

                    "STO             " FLOW TERMS FOR TIME STEP 89, STRESS PERIOD  3 READ UNFORMATTED ON UNIT 10
                    --------------------------------------------------------------------------------------------

 MAXIMUM STEPSIZE DURING WHICH ANY PARTICLE CANNOT MOVE MORE THAN ONE CELL
 =  422.2    (WHEN MIN. R.F.=1)  AT K=   2, I=   5, J=   5

 MAXIMUM STEPSIZE WHICH MEETS STABILITY CRITERION OF THE ADVECTION TERM
 (FOR PURE FINITE-DIFFERENCE OPTION, MIXELM=0) 
 =  135.1    (WHEN MIN. R.F.=1)  AT K=   2, I=   5, J=   5

                    "CNH             " FLOW TERMS FOR TIME STEP 89, STRESS PERIOD  3 READ UNFORMATTED ON UNIT 10
                    --------------------------------------------------------------------------------------------

                    "WEL             " FLOW TERMS FOR TIME STEP 89, STRESS PERIOD  3 READ UNFORMATTED ON UNIT 10
                    --------------------------------------------------------------------------------------------

                    "GHB             " FLOW TERMS FOR TIME STEP 89, STRESS PERIOD  3 READ UNFORMATTED ON UNIT 10
                    --------------------------------------------------------------------------------------------


 TOTAL NUMBER OF POINT SOURCES/SINKS PRESENT IN THE FLOW MODEL =    41

 MAXIMUM STEPSIZE WHICH MEETS STABILITY CRITERION OF THE SINK & SOURCE TERM
 =  90.00    (WHEN MIN. R.F.=1)  AT K=   1, I=   5, J=   5

 MAXIMUM STEPSIZE WHICH MEETS STABILITY CRITERION OF THE DISPERSION TERM
 =  267.6    (WHEN MIN. R.F.=1)  AT K=   1, I=   5, J=   5


     1 CALLS TO GCG PACKAGE FOR TRANSPORT TIME STEP   1 IN FLOW TIME STEP  89 STRESS PERIOD   3
     2 TOTAL ITERATIONS
  MAXIMUM CONCENTRATION CHANGES FOR EACH ITERATION:
  MAX. CHANGE LAYER,ROW,COL MAX. CHANGE LAYER,ROW,COL MAX. CHANGE LAYER,ROW,COL MAX. CHANGE LAYER,ROW,COL MAX. CHANGE LAYER,ROW,COL
 ------------------------------------------------------------------------------------------------------------------------------------
   0.2605E-02 (  1,  5,  5)  0.1455E-10 (  2,  4,  6)


                                          ================================================
                                                         TIME STEP NO.  090
                                          ================================================

 FROM TIME =   190.00     TO    191.00    


                    "THKSAT          " FLOW TERMS FOR TIME STEP 90, STRESS PERIOD  3 READ UNFORMATTED ON UNIT 10
                    --------------------------------------------------------------------------------------------

                    "QXX             " FLOW TERMS FOR TIME STEP 90, STRESS PERIOD  3 READ UNFORMATTED ON UNIT 10
                    --------------------------------------------------------------------------------------------

                    "QYY             " FLOW TERMS FOR TIME STEP 90, STRESS PERIOD  3 READ UNFORMATTED ON UNIT 10
                    --------------------------------------------------------------------------------------------

                    "QZZ             " FLOW TERMS FOR TIME STEP 90, STRESS PERIOD  3 READ UNFORMATTED ON UNIT 10
                    --------------------------------------------------------------------------------------------

                    "STO             " FLOW TERMS FOR TIME STEP 90, STRESS PERIOD  3 READ UNFORMATTED ON UNIT 10
                    --------------------------------------------------------------------------------------------

 MAXIMUM STEPSIZE DURING WHICH ANY PARTICLE CANNOT MOVE MORE THAN ONE CELL
 =  422.2    (WHEN MIN. R.F.=1)  AT K=   2, I=   5, J=   5

 MAXIMUM STEPSIZE WHICH MEETS STABILITY CRITERION OF THE ADVECTION TERM
 (FOR PURE FINITE-DIFFERENCE OPTION, MIXELM=0) 
 =  135.1    (WHEN MIN. R.F.=1)  AT K=   2, I=   5, J=   5

                    "CNH             " FLOW TERMS FOR TIME STEP 90, STRESS PERIOD  3 READ UNFORMATTED ON UNIT 10
                    --------------------------------------------------------------------------------------------

                    "WEL             " FLOW TERMS FOR TIME STEP 90, STRESS PERIOD  3 READ UNFORMATTED ON UNIT 10
                    --------------------------------------------------------------------------------------------

                    "GHB             " FLOW TERMS FOR TIME STEP 90, STRESS PERIOD  3 READ UNFORMATTED ON UNIT 10
                    --------------------------------------------------------------------------------------------


 TOTAL NUMBER OF POINT SOURCES/SINKS PRESENT IN THE FLOW MODEL =    41

 MAXIMUM STEPSIZE WHICH MEETS STABILITY CRITERION OF THE SINK & SOURCE TERM
 =  90.00    (WHEN MIN. R.F.=1)  AT K=   1, I=   5, J=   5

 MAXIMUM STEPSIZE WHICH MEETS STABILITY CRITERION OF THE DISPERSION TERM
 =  267.6    (WHEN MIN. R.F.=1)  AT K=   1, I=   5, J=   5


     1 CALLS TO GCG PACKAGE FOR TRANSPORT TIME STEP   1 IN FLOW TIME STEP  90 STRESS PERIOD   3
     2 TOTAL ITERATIONS
  MAXIMUM CONCENTRATION CHANGES FOR EACH ITERATION:
  MAX. CHANGE LAYER,ROW,COL MAX. CHANGE LAYER,ROW,COL MAX. CHANGE LAYER,ROW,COL MAX. CHANGE LAYER,ROW,COL MAX. CHANGE LAYER,ROW,COL
 ------------------------------------------------------------------------------------------------------------------------------------
   0.2566E-02 (  1,  5,  5)  0.1455E-10 (  2,  4,  6)


                                          ================================================
                                                         TIME STEP NO.  091
                                          ================================================

 FROM TIME =   191.00     TO    192.00    


                    "THKSAT          " FLOW TERMS FOR TIME STEP 91, STRESS PERIOD  3 READ UNFORMATTED ON UNIT 10
                    --------------------------------------------------------------------------------------------

                    "QXX             " FLOW TERMS FOR TIME STEP 91, STRESS PERIOD  3 READ UNFORMATTED ON UNIT 10
                    --------------------------------------------------------------------------------------------

                    "QYY             " FLOW TERMS FOR TIME STEP 91, STRESS PERIOD  3 READ UNFORMATTED ON UNIT 10
                    --------------------------------------------------------------------------------------------

                    "QZZ             " FLOW TERMS FOR TIME STEP 91, STRESS PERIOD  3 READ UNFORMATTED ON UNIT 10
                    --------------------------------------------------------------------------------------------

                    "STO             " FLOW TERMS FOR TIME STEP 91, STRESS PERIOD  3 READ UNFORMATTED ON UNIT 10
                    --------------------------------------------------------------------------------------------

 MAXIMUM STEPSIZE DURING WHICH ANY PARTICLE CANNOT MOVE MORE THAN ONE CELL
 =  422.2    (WHEN MIN. R.F.=1)  AT K=   2, I=   5, J=   5

 MAXIMUM STEPSIZE WHICH MEETS STABILITY CRITERION OF THE ADVECTION TERM
 (FOR PURE FINITE-DIFFERENCE OPTION, MIXELM=0) 
 =  135.1    (WHEN MIN. R.F.=1)  AT K=   2, I=   5, J=   5

                    "CNH             " FLOW TERMS FOR TIME STEP 91, STRESS PERIOD  3 READ UNFORMATTED ON UNIT 10
                    --------------------------------------------------------------------------------------------

                    "WEL             " FLOW TERMS FOR TIME STEP 91, STRESS PERIOD  3 READ UNFORMATTED ON UNIT 10
                    --------------------------------------------------------------------------------------------

                    "GHB             " FLOW TERMS FOR TIME STEP 91, STRESS PERIOD  3 READ UNFORMATTED ON UNIT 10
                    --------------------------------------------------------------------------------------------


 TOTAL NUMBER OF POINT SOURCES/SINKS PRESENT IN THE FLOW MODEL =    41

 MAXIMUM STEPSIZE WHICH MEETS STABILITY CRITERION OF THE SINK & SOURCE TERM
 =  90.00    (WHEN MIN. R.F.=1)  AT K=   1, I=   5, J=   5

 MAXIMUM STEPSIZE WHICH MEETS STABILITY CRITERION OF THE DISPERSION TERM
 =  267.6    (WHEN MIN. R.F.=1)  AT K=   1, I=   5, J=   5


     1 CALLS TO GCG PACKAGE FOR TRANSPORT TIME STEP   1 IN FLOW TIME STEP  91 STRESS PERIOD   3
     2 TOTAL ITERATIONS
  MAXIMUM CONCENTRATION CHANGES FOR EACH ITERATION:
  MAX. CHANGE LAYER,ROW,COL MAX. CHANGE LAYER,ROW,COL MAX. CHANGE LAYER,ROW,COL MAX. CHANGE LAYER,ROW,COL MAX. CHANGE LAYER,ROW,COL
 ------------------------------------------------------------------------------------------------------------------------------------
   0.2528E-02 (  1,  5,  5)  0.1455E-10 (  2,  4,  6)


                                          ================================================
                                                         TIME STEP NO.  092
                                          ================================================

 FROM TIME =   192.00     TO    193.00    


                    "THKSAT          " FLOW TERMS FOR TIME STEP 92, STRESS PERIOD  3 READ UNFORMATTED ON UNIT 10
                    --------------------------------------------------------------------------------------------

                    "QXX             " FLOW TERMS FOR TIME STEP 92, STRESS PERIOD  3 READ UNFORMATTED ON UNIT 10
                    --------------------------------------------------------------------------------------------

                    "QYY             " FLOW TERMS FOR TIME STEP 92, STRESS PERIOD  3 READ UNFORMATTED ON UNIT 10
                    --------------------------------------------------------------------------------------------

                    "QZZ             " FLOW TERMS FOR TIME STEP 92, STRESS PERIOD  3 READ UNFORMATTED ON UNIT 10
                    --------------------------------------------------------------------------------------------

                    "STO             " FLOW TERMS FOR TIME STEP 92, STRESS PERIOD  3 READ UNFORMATTED ON UNIT 10
                    --------------------------------------------------------------------------------------------

 MAXIMUM STEPSIZE DURING WHICH ANY PARTICLE CANNOT MOVE MORE THAN ONE CELL
 =  422.2    (WHEN MIN. R.F.=1)  AT K=   2, I=   5, J=   5

 MAXIMUM STEPSIZE WHICH MEETS STABILITY CRITERION OF THE ADVECTION TERM
 (FOR PURE FINITE-DIFFERENCE OPTION, MIXELM=0) 
 =  135.1    (WHEN MIN. R.F.=1)  AT K=   2, I=   5, J=   5

                    "CNH             " FLOW TERMS FOR TIME STEP 92, STRESS PERIOD  3 READ UNFORMATTED ON UNIT 10
                    --------------------------------------------------------------------------------------------

                    "WEL             " FLOW TERMS FOR TIME STEP 92, STRESS PERIOD  3 READ UNFORMATTED ON UNIT 10
                    --------------------------------------------------------------------------------------------

                    "GHB             " FLOW TERMS FOR TIME STEP 92, STRESS PERIOD  3 READ UNFORMATTED ON UNIT 10
                    --------------------------------------------------------------------------------------------


 TOTAL NUMBER OF POINT SOURCES/SINKS PRESENT IN THE FLOW MODEL =    41

 MAXIMUM STEPSIZE WHICH MEETS STABILITY CRITERION OF THE SINK & SOURCE TERM
 =  90.00    (WHEN MIN. R.F.=1)  AT K=   1, I=   5, J=   5

 MAXIMUM STEPSIZE WHICH MEETS STABILITY CRITERION OF THE DISPERSION TERM
 =  267.6    (WHEN MIN. R.F.=1)  AT K=   1, I=   5, J=   5


     1 CALLS TO GCG PACKAGE FOR TRANSPORT TIME STEP   1 IN FLOW TIME STEP  92 STRESS PERIOD   3
     2 TOTAL ITERATIONS
  MAXIMUM CONCENTRATION CHANGES FOR EACH ITERATION:
  MAX. CHANGE LAYER,ROW,COL MAX. CHANGE LAYER,ROW,COL MAX. CHANGE LAYER,ROW,COL MAX. CHANGE LAYER,ROW,COL MAX. CHANGE LAYER,ROW,COL
 ------------------------------------------------------------------------------------------------------------------------------------
   0.2490E-02 (  1,  5,  5)  0.1455E-10 (  2,  4,  6)


                                          ================================================
                                                         TIME STEP NO.  093
                                          ================================================

 FROM TIME =   193.00     TO    194.00    


                    "THKSAT          " FLOW TERMS FOR TIME STEP 93, STRESS PERIOD  3 READ UNFORMATTED ON UNIT 10
                    --------------------------------------------------------------------------------------------

                    "QXX             " FLOW TERMS FOR TIME STEP 93, STRESS PERIOD  3 READ UNFORMATTED ON UNIT 10
                    --------------------------------------------------------------------------------------------

                    "QYY             " FLOW TERMS FOR TIME STEP 93, STRESS PERIOD  3 READ UNFORMATTED ON UNIT 10
                    --------------------------------------------------------------------------------------------

                    "QZZ             " FLOW TERMS FOR TIME STEP 93, STRESS PERIOD  3 READ UNFORMATTED ON UNIT 10
                    --------------------------------------------------------------------------------------------

                    "STO             " FLOW TERMS FOR TIME STEP 93, STRESS PERIOD  3 READ UNFORMATTED ON UNIT 10
                    --------------------------------------------------------------------------------------------

 MAXIMUM STEPSIZE DURING WHICH ANY PARTICLE CANNOT MOVE MORE THAN ONE CELL
 =  422.2    (WHEN MIN. R.F.=1)  AT K=   2, I=   5, J=   5

 MAXIMUM STEPSIZE WHICH MEETS STABILITY CRITERION OF THE ADVECTION TERM
 (FOR PURE FINITE-DIFFERENCE OPTION, MIXELM=0) 
 =  135.1    (WHEN MIN. R.F.=1)  AT K=   2, I=   5, J=   5

                    "CNH             " FLOW TERMS FOR TIME STEP 93, STRESS PERIOD  3 READ UNFORMATTED ON UNIT 10
                    --------------------------------------------------------------------------------------------

                    "WEL             " FLOW TERMS FOR TIME STEP 93, STRESS PERIOD  3 READ UNFORMATTED ON UNIT 10
                    --------------------------------------------------------------------------------------------

                    "GHB             " FLOW TERMS FOR TIME STEP 93, STRESS PERIOD  3 READ UNFORMATTED ON UNIT 10
                    --------------------------------------------------------------------------------------------


 TOTAL NUMBER OF POINT SOURCES/SINKS PRESENT IN THE FLOW MODEL =    41

 MAXIMUM STEPSIZE WHICH MEETS STABILITY CRITERION OF THE SINK & SOURCE TERM
 =  90.00    (WHEN MIN. R.F.=1)  AT K=   1, I=   5, J=   5

 MAXIMUM STEPSIZE WHICH MEETS STABILITY CRITERION OF THE DISPERSION TERM
 =  267.6    (WHEN MIN. R.F.=1)  AT K=   1, I=   5, J=   5


     1 CALLS TO GCG PACKAGE FOR TRANSPORT TIME STEP   1 IN FLOW TIME STEP  93 STRESS PERIOD   3
     2 TOTAL ITERATIONS
  MAXIMUM CONCENTRATION CHANGES FOR EACH ITERATION:
  MAX. CHANGE LAYER,ROW,COL MAX. CHANGE LAYER,ROW,COL MAX. CHANGE LAYER,ROW,COL MAX. CHANGE LAYER,ROW,COL MAX. CHANGE LAYER,ROW,COL
 ------------------------------------------------------------------------------------------------------------------------------------
   0.2453E-02 (  1,  5,  5)  0.1455E-10 (  2,  4,  6)


                                          ================================================
                                                         TIME STEP NO.  094
                                          ================================================

 FROM TIME =   194.00     TO    195.00    


                    "THKSAT          " FLOW TERMS FOR TIME STEP 94, STRESS PERIOD  3 READ UNFORMATTED ON UNIT 10
                    --------------------------------------------------------------------------------------------

                    "QXX             " FLOW TERMS FOR TIME STEP 94, STRESS PERIOD  3 READ UNFORMATTED ON UNIT 10
                    --------------------------------------------------------------------------------------------

                    "QYY             " FLOW TERMS FOR TIME STEP 94, STRESS PERIOD  3 READ UNFORMATTED ON UNIT 10
                    --------------------------------------------------------------------------------------------

                    "QZZ             " FLOW TERMS FOR TIME STEP 94, STRESS PERIOD  3 READ UNFORMATTED ON UNIT 10
                    --------------------------------------------------------------------------------------------

                    "STO             " FLOW TERMS FOR TIME STEP 94, STRESS PERIOD  3 READ UNFORMATTED ON UNIT 10
                    --------------------------------------------------------------------------------------------

 MAXIMUM STEPSIZE DURING WHICH ANY PARTICLE CANNOT MOVE MORE THAN ONE CELL
 =  422.2    (WHEN MIN. R.F.=1)  AT K=   2, I=   5, J=   5

 MAXIMUM STEPSIZE WHICH MEETS STABILITY CRITERION OF THE ADVECTION TERM
 (FOR PURE FINITE-DIFFERENCE OPTION, MIXELM=0) 
 =  135.1    (WHEN MIN. R.F.=1)  AT K=   2, I=   5, J=   5

                    "CNH             " FLOW TERMS FOR TIME STEP 94, STRESS PERIOD  3 READ UNFORMATTED ON UNIT 10
                    --------------------------------------------------------------------------------------------

                    "WEL             " FLOW TERMS FOR TIME STEP 94, STRESS PERIOD  3 READ UNFORMATTED ON UNIT 10
                    --------------------------------------------------------------------------------------------

                    "GHB             " FLOW TERMS FOR TIME STEP 94, STRESS PERIOD  3 READ UNFORMATTED ON UNIT 10
                    --------------------------------------------------------------------------------------------


 TOTAL NUMBER OF POINT SOURCES/SINKS PRESENT IN THE FLOW MODEL =    41

 MAXIMUM STEPSIZE WHICH MEETS STABILITY CRITERION OF THE SINK & SOURCE TERM
 =  90.00    (WHEN MIN. R.F.=1)  AT K=   1, I=   5, J=   5

 MAXIMUM STEPSIZE WHICH MEETS STABILITY CRITERION OF THE DISPERSION TERM
 =  267.6    (WHEN MIN. R.F.=1)  AT K=   1, I=   5, J=   5


     1 CALLS TO GCG PACKAGE FOR TRANSPORT TIME STEP   1 IN FLOW TIME STEP  94 STRESS PERIOD   3
     2 TOTAL ITERATIONS
  MAXIMUM CONCENTRATION CHANGES FOR EACH ITERATION:
  MAX. CHANGE LAYER,ROW,COL MAX. CHANGE LAYER,ROW,COL MAX. CHANGE LAYER,ROW,COL MAX. CHANGE LAYER,ROW,COL MAX. CHANGE LAYER,ROW,COL
 ------------------------------------------------------------------------------------------------------------------------------------
   0.2416E-02 (  1,  5,  5)  0.1455E-10 (  2,  4,  6)


                                          ================================================
                                                         TIME STEP NO.  095
                                          ================================================

 FROM TIME =   195.00     TO    196.00    


                    "THKSAT          " FLOW TERMS FOR TIME STEP 95, STRESS PERIOD  3 READ UNFORMATTED ON UNIT 10
                    --------------------------------------------------------------------------------------------

                    "QXX             " FLOW TERMS FOR TIME STEP 95, STRESS PERIOD  3 READ UNFORMATTED ON UNIT 10
                    --------------------------------------------------------------------------------------------

                    "QYY             " FLOW TERMS FOR TIME STEP 95, STRESS PERIOD  3 READ UNFORMATTED ON UNIT 10
                    --------------------------------------------------------------------------------------------

                    "QZZ             " FLOW TERMS FOR TIME STEP 95, STRESS PERIOD  3 READ UNFORMATTED ON UNIT 10
                    --------------------------------------------------------------------------------------------

                    "STO             " FLOW TERMS FOR TIME STEP 95, STRESS PERIOD  3 READ UNFORMATTED ON UNIT 10
                    --------------------------------------------------------------------------------------------

 MAXIMUM STEPSIZE DURING WHICH ANY PARTICLE CANNOT MOVE MORE THAN ONE CELL
 =  422.2    (WHEN MIN. R.F.=1)  AT K=   2, I=   5, J=   5

 MAXIMUM STEPSIZE WHICH MEETS STABILITY CRITERION OF THE ADVECTION TERM
 (FOR PURE FINITE-DIFFERENCE OPTION, MIXELM=0) 
 =  135.1    (WHEN MIN. R.F.=1)  AT K=   2, I=   5, J=   5

                    "CNH             " FLOW TERMS FOR TIME STEP 95, STRESS PERIOD  3 READ UNFORMATTED ON UNIT 10
                    --------------------------------------------------------------------------------------------

                    "WEL             " FLOW TERMS FOR TIME STEP 95, STRESS PERIOD  3 READ UNFORMATTED ON UNIT 10
                    --------------------------------------------------------------------------------------------

                    "GHB             " FLOW TERMS FOR TIME STEP 95, STRESS PERIOD  3 READ UNFORMATTED ON UNIT 10
                    --------------------------------------------------------------------------------------------


 TOTAL NUMBER OF POINT SOURCES/SINKS PRESENT IN THE FLOW MODEL =    41

 MAXIMUM STEPSIZE WHICH MEETS STABILITY CRITERION OF THE SINK & SOURCE TERM
 =  90.00    (WHEN MIN. R.F.=1)  AT K=   1, I=   5, J=   5

 MAXIMUM STEPSIZE WHICH MEETS STABILITY CRITERION OF THE DISPERSION TERM
 =  267.6    (WHEN MIN. R.F.=1)  AT K=   1, I=   5, J=   5


     1 CALLS TO GCG PACKAGE FOR TRANSPORT TIME STEP   1 IN FLOW TIME STEP  95 STRESS PERIOD   3
     2 TOTAL ITERATIONS
  MAXIMUM CONCENTRATION CHANGES FOR EACH ITERATION:
  MAX. CHANGE LAYER,ROW,COL MAX. CHANGE LAYER,ROW,COL MAX. CHANGE LAYER,ROW,COL MAX. CHANGE LAYER,ROW,COL MAX. CHANGE LAYER,ROW,COL
 ------------------------------------------------------------------------------------------------------------------------------------
   0.2381E-02 (  1,  5,  5)  0.1455E-10 (  2,  4,  6)


                                          ================================================
                                                         TIME STEP NO.  096
                                          ================================================

 FROM TIME =   196.00     TO    197.00    


                    "THKSAT          " FLOW TERMS FOR TIME STEP 96, STRESS PERIOD  3 READ UNFORMATTED ON UNIT 10
                    --------------------------------------------------------------------------------------------

                    "QXX             " FLOW TERMS FOR TIME STEP 96, STRESS PERIOD  3 READ UNFORMATTED ON UNIT 10
                    --------------------------------------------------------------------------------------------

                    "QYY             " FLOW TERMS FOR TIME STEP 96, STRESS PERIOD  3 READ UNFORMATTED ON UNIT 10
                    --------------------------------------------------------------------------------------------

                    "QZZ             " FLOW TERMS FOR TIME STEP 96, STRESS PERIOD  3 READ UNFORMATTED ON UNIT 10
                    --------------------------------------------------------------------------------------------

                    "STO             " FLOW TERMS FOR TIME STEP 96, STRESS PERIOD  3 READ UNFORMATTED ON UNIT 10
                    --------------------------------------------------------------------------------------------

 MAXIMUM STEPSIZE DURING WHICH ANY PARTICLE CANNOT MOVE MORE THAN ONE CELL
 =  422.2    (WHEN MIN. R.F.=1)  AT K=   2, I=   5, J=   5

 MAXIMUM STEPSIZE WHICH MEETS STABILITY CRITERION OF THE ADVECTION TERM
 (FOR PURE FINITE-DIFFERENCE OPTION, MIXELM=0) 
 =  135.1    (WHEN MIN. R.F.=1)  AT K=   2, I=   5, J=   5

                    "CNH             " FLOW TERMS FOR TIME STEP 96, STRESS PERIOD  3 READ UNFORMATTED ON UNIT 10
                    --------------------------------------------------------------------------------------------

                    "WEL             " FLOW TERMS FOR TIME STEP 96, STRESS PERIOD  3 READ UNFORMATTED ON UNIT 10
                    --------------------------------------------------------------------------------------------

                    "GHB             " FLOW TERMS FOR TIME STEP 96, STRESS PERIOD  3 READ UNFORMATTED ON UNIT 10
                    --------------------------------------------------------------------------------------------


 TOTAL NUMBER OF POINT SOURCES/SINKS PRESENT IN THE FLOW MODEL =    41

 MAXIMUM STEPSIZE WHICH MEETS STABILITY CRITERION OF THE SINK & SOURCE TERM
 =  90.00    (WHEN MIN. R.F.=1)  AT K=   1, I=   5, J=   5

 MAXIMUM STEPSIZE WHICH MEETS STABILITY CRITERION OF THE DISPERSION TERM
 =  267.6    (WHEN MIN. R.F.=1)  AT K=   1, I=   5, J=   5


     1 CALLS TO GCG PACKAGE FOR TRANSPORT TIME STEP   1 IN FLOW TIME STEP  96 STRESS PERIOD   3
     2 TOTAL ITERATIONS
  MAXIMUM CONCENTRATION CHANGES FOR EACH ITERATION:
  MAX. CHANGE LAYER,ROW,COL MAX. CHANGE LAYER,ROW,COL MAX. CHANGE LAYER,ROW,COL MAX. CHANGE LAYER,ROW,COL MAX. CHANGE LAYER,ROW,COL
 ------------------------------------------------------------------------------------------------------------------------------------
   0.2346E-02 (  1,  5,  5)  0.1455E-10 (  2,  4,  6)


                                          ================================================
                                                         TIME STEP NO.  097
                                          ================================================

 FROM TIME =   197.00     TO    198.00    


                    "THKSAT          " FLOW TERMS FOR TIME STEP 97, STRESS PERIOD  3 READ UNFORMATTED ON UNIT 10
                    --------------------------------------------------------------------------------------------

                    "QXX             " FLOW TERMS FOR TIME STEP 97, STRESS PERIOD  3 READ UNFORMATTED ON UNIT 10
                    --------------------------------------------------------------------------------------------

                    "QYY             " FLOW TERMS FOR TIME STEP 97, STRESS PERIOD  3 READ UNFORMATTED ON UNIT 10
                    --------------------------------------------------------------------------------------------

                    "QZZ             " FLOW TERMS FOR TIME STEP 97, STRESS PERIOD  3 READ UNFORMATTED ON UNIT 10
                    --------------------------------------------------------------------------------------------

                    "STO             " FLOW TERMS FOR TIME STEP 97, STRESS PERIOD  3 READ UNFORMATTED ON UNIT 10
                    --------------------------------------------------------------------------------------------

 MAXIMUM STEPSIZE DURING WHICH ANY PARTICLE CANNOT MOVE MORE THAN ONE CELL
 =  422.2    (WHEN MIN. R.F.=1)  AT K=   2, I=   5, J=   5

 MAXIMUM STEPSIZE WHICH MEETS STABILITY CRITERION OF THE ADVECTION TERM
 (FOR PURE FINITE-DIFFERENCE OPTION, MIXELM=0) 
 =  135.1    (WHEN MIN. R.F.=1)  AT K=   2, I=   5, J=   5

                    "CNH             " FLOW TERMS FOR TIME STEP 97, STRESS PERIOD  3 READ UNFORMATTED ON UNIT 10
                    --------------------------------------------------------------------------------------------

                    "WEL             " FLOW TERMS FOR TIME STEP 97, STRESS PERIOD  3 READ UNFORMATTED ON UNIT 10
                    --------------------------------------------------------------------------------------------

                    "GHB             " FLOW TERMS FOR TIME STEP 97, STRESS PERIOD  3 READ UNFORMATTED ON UNIT 10
                    --------------------------------------------------------------------------------------------


 TOTAL NUMBER OF POINT SOURCES/SINKS PRESENT IN THE FLOW MODEL =    41

 MAXIMUM STEPSIZE WHICH MEETS STABILITY CRITERION OF THE SINK & SOURCE TERM
 =  90.00    (WHEN MIN. R.F.=1)  AT K=   1, I=   5, J=   5

 MAXIMUM STEPSIZE WHICH MEETS STABILITY CRITERION OF THE DISPERSION TERM
 =  267.6    (WHEN MIN. R.F.=1)  AT K=   1, I=   5, J=   5


     1 CALLS TO GCG PACKAGE FOR TRANSPORT TIME STEP   1 IN FLOW TIME STEP  97 STRESS PERIOD   3
     2 TOTAL ITERATIONS
  MAXIMUM CONCENTRATION CHANGES FOR EACH ITERATION:
  MAX. CHANGE LAYER,ROW,COL MAX. CHANGE LAYER,ROW,COL MAX. CHANGE LAYER,ROW,COL MAX. CHANGE LAYER,ROW,COL MAX. CHANGE LAYER,ROW,COL
 ------------------------------------------------------------------------------------------------------------------------------------
   0.2922E-02 (  1,  5,  5)  0.4547E-12 (  2,  4,  7)


                                          ================================================
                                                         TIME STEP NO.  098
                                          ================================================

 FROM TIME =   198.00     TO    199.00    


                    "THKSAT          " FLOW TERMS FOR TIME STEP 98, STRESS PERIOD  3 READ UNFORMATTED ON UNIT 10
                    --------------------------------------------------------------------------------------------

                    "QXX             " FLOW TERMS FOR TIME STEP 98, STRESS PERIOD  3 READ UNFORMATTED ON UNIT 10
                    --------------------------------------------------------------------------------------------

                    "QYY             " FLOW TERMS FOR TIME STEP 98, STRESS PERIOD  3 READ UNFORMATTED ON UNIT 10
                    --------------------------------------------------------------------------------------------

                    "QZZ             " FLOW TERMS FOR TIME STEP 98, STRESS PERIOD  3 READ UNFORMATTED ON UNIT 10
                    --------------------------------------------------------------------------------------------

                    "STO             " FLOW TERMS FOR TIME STEP 98, STRESS PERIOD  3 READ UNFORMATTED ON UNIT 10
                    --------------------------------------------------------------------------------------------

 MAXIMUM STEPSIZE DURING WHICH ANY PARTICLE CANNOT MOVE MORE THAN ONE CELL
 =  422.2    (WHEN MIN. R.F.=1)  AT K=   2, I=   5, J=   5

 MAXIMUM STEPSIZE WHICH MEETS STABILITY CRITERION OF THE ADVECTION TERM
 (FOR PURE FINITE-DIFFERENCE OPTION, MIXELM=0) 
 =  135.1    (WHEN MIN. R.F.=1)  AT K=   2, I=   5, J=   5

                    "CNH             " FLOW TERMS FOR TIME STEP 98, STRESS PERIOD  3 READ UNFORMATTED ON UNIT 10
                    --------------------------------------------------------------------------------------------

                    "WEL             " FLOW TERMS FOR TIME STEP 98, STRESS PERIOD  3 READ UNFORMATTED ON UNIT 10
                    --------------------------------------------------------------------------------------------

                    "GHB             " FLOW TERMS FOR TIME STEP 98, STRESS PERIOD  3 READ UNFORMATTED ON UNIT 10
                    --------------------------------------------------------------------------------------------


 TOTAL NUMBER OF POINT SOURCES/SINKS PRESENT IN THE FLOW MODEL =    41

 MAXIMUM STEPSIZE WHICH MEETS STABILITY CRITERION OF THE SINK & SOURCE TERM
 =  90.00    (WHEN MIN. R.F.=1)  AT K=   1, I=   5, J=   5

 MAXIMUM STEPSIZE WHICH MEETS STABILITY CRITERION OF THE DISPERSION TERM
 =  267.6    (WHEN MIN. R.F.=1)  AT K=   1, I=   5, J=   5


     1 CALLS TO GCG PACKAGE FOR TRANSPORT TIME STEP   1 IN FLOW TIME STEP  98 STRESS PERIOD   3
     2 TOTAL ITERATIONS
  MAXIMUM CONCENTRATION CHANGES FOR EACH ITERATION:
  MAX. CHANGE LAYER,ROW,COL MAX. CHANGE LAYER,ROW,COL MAX. CHANGE LAYER,ROW,COL MAX. CHANGE LAYER,ROW,COL MAX. CHANGE LAYER,ROW,COL
 ------------------------------------------------------------------------------------------------------------------------------------
   0.2876E-02 (  1,  5,  5)  0.4547E-12 (  2,  4,  7)


                                          ================================================
                                                         TIME STEP NO.  099
                                          ================================================

 FROM TIME =   199.00     TO    200.00    


                    "THKSAT          " FLOW TERMS FOR TIME STEP 99, STRESS PERIOD  3 READ UNFORMATTED ON UNIT 10
                    --------------------------------------------------------------------------------------------

                    "QXX             " FLOW TERMS FOR TIME STEP 99, STRESS PERIOD  3 READ UNFORMATTED ON UNIT 10
                    --------------------------------------------------------------------------------------------

                    "QYY             " FLOW TERMS FOR TIME STEP 99, STRESS PERIOD  3 READ UNFORMATTED ON UNIT 10
                    --------------------------------------------------------------------------------------------

                    "QZZ             " FLOW TERMS FOR TIME STEP 99, STRESS PERIOD  3 READ UNFORMATTED ON UNIT 10
                    --------------------------------------------------------------------------------------------

                    "STO             " FLOW TERMS FOR TIME STEP 99, STRESS PERIOD  3 READ UNFORMATTED ON UNIT 10
                    --------------------------------------------------------------------------------------------

 MAXIMUM STEPSIZE DURING WHICH ANY PARTICLE CANNOT MOVE MORE THAN ONE CELL
 =  422.2    (WHEN MIN. R.F.=1)  AT K=   2, I=   5, J=   5

 MAXIMUM STEPSIZE WHICH MEETS STABILITY CRITERION OF THE ADVECTION TERM
 (FOR PURE FINITE-DIFFERENCE OPTION, MIXELM=0) 
 =  135.1    (WHEN MIN. R.F.=1)  AT K=   2, I=   5, J=   5

                    "CNH             " FLOW TERMS FOR TIME STEP 99, STRESS PERIOD  3 READ UNFORMATTED ON UNIT 10
                    --------------------------------------------------------------------------------------------

                    "WEL             " FLOW TERMS FOR TIME STEP 99, STRESS PERIOD  3 READ UNFORMATTED ON UNIT 10
                    --------------------------------------------------------------------------------------------

                    "GHB             " FLOW TERMS FOR TIME STEP 99, STRESS PERIOD  3 READ UNFORMATTED ON UNIT 10
                    --------------------------------------------------------------------------------------------


 TOTAL NUMBER OF POINT SOURCES/SINKS PRESENT IN THE FLOW MODEL =    41

 MAXIMUM STEPSIZE WHICH MEETS STABILITY CRITERION OF THE SINK & SOURCE TERM
 =  90.00    (WHEN MIN. R.F.=1)  AT K=   1, I=   5, J=   5

 MAXIMUM STEPSIZE WHICH MEETS STABILITY CRITERION OF THE DISPERSION TERM
 =  267.6    (WHEN MIN. R.F.=1)  AT K=   1, I=   5, J=   5


     1 CALLS TO GCG PACKAGE FOR TRANSPORT TIME STEP   1 IN FLOW TIME STEP  99 STRESS PERIOD   3
     2 TOTAL ITERATIONS
  MAXIMUM CONCENTRATION CHANGES FOR EACH ITERATION:
  MAX. CHANGE LAYER,ROW,COL MAX. CHANGE LAYER,ROW,COL MAX. CHANGE LAYER,ROW,COL MAX. CHANGE LAYER,ROW,COL MAX. CHANGE LAYER,ROW,COL
 ------------------------------------------------------------------------------------------------------------------------------------
   0.2831E-02 (  1,  5,  5)  0.4547E-12 (  2,  4,  7)


                                          ================================================
                                                         TIME STEP NO.  100
                                          ================================================

 FROM TIME =   200.00     TO    201.00    


                    "THKSAT          " FLOW TERMS FOR TIME STEP100, STRESS PERIOD  3 READ UNFORMATTED ON UNIT 10
                    --------------------------------------------------------------------------------------------

                    "QXX             " FLOW TERMS FOR TIME STEP100, STRESS PERIOD  3 READ UNFORMATTED ON UNIT 10
                    --------------------------------------------------------------------------------------------

                    "QYY             " FLOW TERMS FOR TIME STEP100, STRESS PERIOD  3 READ UNFORMATTED ON UNIT 10
                    --------------------------------------------------------------------------------------------

                    "QZZ             " FLOW TERMS FOR TIME STEP100, STRESS PERIOD  3 READ UNFORMATTED ON UNIT 10
                    --------------------------------------------------------------------------------------------

                    "STO             " FLOW TERMS FOR TIME STEP100, STRESS PERIOD  3 READ UNFORMATTED ON UNIT 10
                    --------------------------------------------------------------------------------------------

 MAXIMUM STEPSIZE DURING WHICH ANY PARTICLE CANNOT MOVE MORE THAN ONE CELL
 =  422.2    (WHEN MIN. R.F.=1)  AT K=   2, I=   5, J=   5

 MAXIMUM STEPSIZE WHICH MEETS STABILITY CRITERION OF THE ADVECTION TERM
 (FOR PURE FINITE-DIFFERENCE OPTION, MIXELM=0) 
 =  135.1    (WHEN MIN. R.F.=1)  AT K=   2, I=   5, J=   5

                    "CNH             " FLOW TERMS FOR TIME STEP100, STRESS PERIOD  3 READ UNFORMATTED ON UNIT 10
                    --------------------------------------------------------------------------------------------

                    "WEL             " FLOW TERMS FOR TIME STEP100, STRESS PERIOD  3 READ UNFORMATTED ON UNIT 10
                    --------------------------------------------------------------------------------------------

                    "GHB             " FLOW TERMS FOR TIME STEP100, STRESS PERIOD  3 READ UNFORMATTED ON UNIT 10
                    --------------------------------------------------------------------------------------------


 TOTAL NUMBER OF POINT SOURCES/SINKS PRESENT IN THE FLOW MODEL =    41

 MAXIMUM STEPSIZE WHICH MEETS STABILITY CRITERION OF THE SINK & SOURCE TERM
 =  90.00    (WHEN MIN. R.F.=1)  AT K=   1, I=   5, J=   5

 MAXIMUM STEPSIZE WHICH MEETS STABILITY CRITERION OF THE DISPERSION TERM
 =  267.6    (WHEN MIN. R.F.=1)  AT K=   1, I=   5, J=   5


     1 CALLS TO GCG PACKAGE FOR TRANSPORT TIME STEP   1 IN FLOW TIME STEP 100 STRESS PERIOD   3
     2 TOTAL ITERATIONS
  MAXIMUM CONCENTRATION CHANGES FOR EACH ITERATION:
  MAX. CHANGE LAYER,ROW,COL MAX. CHANGE LAYER,ROW,COL MAX. CHANGE LAYER,ROW,COL MAX. CHANGE LAYER,ROW,COL MAX. CHANGE LAYER,ROW,COL
 ------------------------------------------------------------------------------------------------------------------------------------
   0.2787E-02 (  1,  5,  5)  0.4547E-12 (  2,  4,  7)



 >>>>>>>>>>>>>>>>>>>>>>>>>>>>>>>>>>>>>>>>>>>>>>>>>>>>>>>FOR COMPONENT NO. 01<<<<<<<<<<<<<<<<<<<<<<<<<<<<<<<<<<<<<<<<<<<<<<<<<<<<<<<


                                            -------------------------------------------
                                                      TRANSPORT STEP NO.    1
                                            -------------------------------------------

 TOTAL ELAPSED TIME SINCE BEGINNING OF SIMULATION =   201.0000    D   
 .....................................................................

 TOTAL PARTICLES USED IN THE CURRENT STEP =      1584
 PARTICLES ADDED AT BEGINNING OF THE STEP =         0
 PARTICLES REMOVED AT END OF LAST STEP    =         0

                     CUMMULATIVE MASS BUDGETS AT END OF TRANSPORT STEP    1, TIME STEP  100, STRESS PERIOD    3
                     ------------------------------------------------------------------------------------------

                                                             IN                           OUT
                                                      ----------------             ----------------
                               CONSTANT CONCENTRATION:    0.000000                    0.000000    
                                        CONSTANT HEAD:    0.000000                    0.000000    
                                                WELLS:   0.1500000E+09                0.000000    
                              HEAD-DEPENDENT BOUNDARY:    0.000000                  -0.1694199E-03
                                MASS STORAGE (SOLUTE):    1459.463                  -0.1391935E+09
                            ---------------------------------------------------------------------------
                                              [TOTAL]:   0.1500189E+09 KG           -0.1392434E+09 KG  

                                                          NET (IN - OUT):   0.1077546E+08
                                                   DISCREPANCY (PERCENT):    7.450300    


                                   ++++++++++++++++++++++++++++++++++++++++++++++++++++++++++++++
                                                       STRESS PERIOD NO.  004
                                   ++++++++++++++++++++++++++++++++++++++++++++++++++++++++++++++


 LENGTH OF CURRENT STRESS PERIOD =   100.0000    
 NUMBER OF TIME STEPS FOR CURRENT STRESS PERIOD =  100
 TIME STEP MULTIPLIER USED IN FLOW SOLUTION =   1.000000    

 ***Type of Transport Simulation is TRANSIENT

 USER-SPECIFIED TRANSPORT STEPSIZE =   0.000000    D   
 MAXIMUM NUMBER OF TRANSPORT STEPS ALLOWED  IN ONE FLOW TIME STEP =     50000
 MULTIPLIER FOR SUCCESSIVE TRANSPORT STEPS  [USED IN IMPLICIT SCHEMES] =     1.000
 MAXIMUM TRANSPORT STEP SIZE  [USED IN IMPLICIT SCHEMES] =   0.000000    D   

       NO    LAYER   ROW   COLUMN   CONCENTRATION       TYPE            COMPONENT
       1       1       5       5       1000.000         WELL                1


                                          ================================================
                                                         TIME STEP NO.  001
                                          ================================================

 FROM TIME =   201.00     TO    202.00    


                    "THKSAT          " FLOW TERMS FOR TIME STEP  1, STRESS PERIOD  4 READ UNFORMATTED ON UNIT 10
                    --------------------------------------------------------------------------------------------

                    "QXX             " FLOW TERMS FOR TIME STEP  1, STRESS PERIOD  4 READ UNFORMATTED ON UNIT 10
                    --------------------------------------------------------------------------------------------

                    "QYY             " FLOW TERMS FOR TIME STEP  1, STRESS PERIOD  4 READ UNFORMATTED ON UNIT 10
                    --------------------------------------------------------------------------------------------

                    "QZZ             " FLOW TERMS FOR TIME STEP  1, STRESS PERIOD  4 READ UNFORMATTED ON UNIT 10
                    --------------------------------------------------------------------------------------------

                    "STO             " FLOW TERMS FOR TIME STEP  1, STRESS PERIOD  4 READ UNFORMATTED ON UNIT 10
                    --------------------------------------------------------------------------------------------

 MAXIMUM STEPSIZE DURING WHICH ANY PARTICLE CANNOT MOVE MORE THAN ONE CELL
 =  593.4    (WHEN MIN. R.F.=1)  AT K=   2, I=   5, J=   5

 MAXIMUM STEPSIZE WHICH MEETS STABILITY CRITERION OF THE ADVECTION TERM
 (FOR PURE FINITE-DIFFERENCE OPTION, MIXELM=0) 
 =  181.2    (WHEN MIN. R.F.=1)  AT K=   2, I=   5, J=   5

                    "CNH             " FLOW TERMS FOR TIME STEP  1, STRESS PERIOD  4 READ UNFORMATTED ON UNIT 10
                    --------------------------------------------------------------------------------------------

                    "WEL             " FLOW TERMS FOR TIME STEP  1, STRESS PERIOD  4 READ UNFORMATTED ON UNIT 10
                    --------------------------------------------------------------------------------------------

                    "GHB             " FLOW TERMS FOR TIME STEP  1, STRESS PERIOD  4 READ UNFORMATTED ON UNIT 10
                    --------------------------------------------------------------------------------------------


 TOTAL NUMBER OF POINT SOURCES/SINKS PRESENT IN THE FLOW MODEL =    41

 MAXIMUM STEPSIZE WHICH MEETS STABILITY CRITERION OF THE SINK & SOURCE TERM
 =  128.6    (WHEN MIN. R.F.=1)  AT K=   1, I=   5, J=   5

 MAXIMUM STEPSIZE WHICH MEETS STABILITY CRITERION OF THE DISPERSION TERM
 =  373.9    (WHEN MIN. R.F.=1)  AT K=   1, I=   5, J=   5


     1 CALLS TO GCG PACKAGE FOR TRANSPORT TIME STEP   1 IN FLOW TIME STEP   1 STRESS PERIOD   4
     2 TOTAL ITERATIONS
  MAXIMUM CONCENTRATION CHANGES FOR EACH ITERATION:
  MAX. CHANGE LAYER,ROW,COL MAX. CHANGE LAYER,ROW,COL MAX. CHANGE LAYER,ROW,COL MAX. CHANGE LAYER,ROW,COL MAX. CHANGE LAYER,ROW,COL
 ------------------------------------------------------------------------------------------------------------------------------------
   0.1886E-02 (  1,  5,  5)  0.5684E-13 (  1,  3,  7)


                                          ================================================
                                                         TIME STEP NO.  002
                                          ================================================

 FROM TIME =   202.00     TO    203.00    


                    "THKSAT          " FLOW TERMS FOR TIME STEP  2, STRESS PERIOD  4 READ UNFORMATTED ON UNIT 10
                    --------------------------------------------------------------------------------------------

                    "QXX             " FLOW TERMS FOR TIME STEP  2, STRESS PERIOD  4 READ UNFORMATTED ON UNIT 10
                    --------------------------------------------------------------------------------------------

                    "QYY             " FLOW TERMS FOR TIME STEP  2, STRESS PERIOD  4 READ UNFORMATTED ON UNIT 10
                    --------------------------------------------------------------------------------------------

                    "QZZ             " FLOW TERMS FOR TIME STEP  2, STRESS PERIOD  4 READ UNFORMATTED ON UNIT 10
                    --------------------------------------------------------------------------------------------

                    "STO             " FLOW TERMS FOR TIME STEP  2, STRESS PERIOD  4 READ UNFORMATTED ON UNIT 10
                    --------------------------------------------------------------------------------------------

 MAXIMUM STEPSIZE DURING WHICH ANY PARTICLE CANNOT MOVE MORE THAN ONE CELL
 =  602.5    (WHEN MIN. R.F.=1)  AT K=   2, I=   5, J=   5

 MAXIMUM STEPSIZE WHICH MEETS STABILITY CRITERION OF THE ADVECTION TERM
 (FOR PURE FINITE-DIFFERENCE OPTION, MIXELM=0) 
 =  187.9    (WHEN MIN. R.F.=1)  AT K=   2, I=   5, J=   5

                    "CNH             " FLOW TERMS FOR TIME STEP  2, STRESS PERIOD  4 READ UNFORMATTED ON UNIT 10
                    --------------------------------------------------------------------------------------------

                    "WEL             " FLOW TERMS FOR TIME STEP  2, STRESS PERIOD  4 READ UNFORMATTED ON UNIT 10
                    --------------------------------------------------------------------------------------------

                    "GHB             " FLOW TERMS FOR TIME STEP  2, STRESS PERIOD  4 READ UNFORMATTED ON UNIT 10
                    --------------------------------------------------------------------------------------------


 TOTAL NUMBER OF POINT SOURCES/SINKS PRESENT IN THE FLOW MODEL =    41

 MAXIMUM STEPSIZE WHICH MEETS STABILITY CRITERION OF THE SINK & SOURCE TERM
 =  128.6    (WHEN MIN. R.F.=1)  AT K=   1, I=   5, J=   5

 MAXIMUM STEPSIZE WHICH MEETS STABILITY CRITERION OF THE DISPERSION TERM
 =  382.6    (WHEN MIN. R.F.=1)  AT K=   1, I=   5, J=   5


     1 CALLS TO GCG PACKAGE FOR TRANSPORT TIME STEP   1 IN FLOW TIME STEP   2 STRESS PERIOD   4
     2 TOTAL ITERATIONS
  MAXIMUM CONCENTRATION CHANGES FOR EACH ITERATION:
  MAX. CHANGE LAYER,ROW,COL MAX. CHANGE LAYER,ROW,COL MAX. CHANGE LAYER,ROW,COL MAX. CHANGE LAYER,ROW,COL MAX. CHANGE LAYER,ROW,COL
 ------------------------------------------------------------------------------------------------------------------------------------
   0.1901E-02 (  1,  5,  5)  0.1421E-13 (  2,  3,  7)


                                          ================================================
                                                         TIME STEP NO.  003
                                          ================================================

 FROM TIME =   203.00     TO    204.00    


                    "THKSAT          " FLOW TERMS FOR TIME STEP  3, STRESS PERIOD  4 READ UNFORMATTED ON UNIT 10
                    --------------------------------------------------------------------------------------------

                    "QXX             " FLOW TERMS FOR TIME STEP  3, STRESS PERIOD  4 READ UNFORMATTED ON UNIT 10
                    --------------------------------------------------------------------------------------------

                    "QYY             " FLOW TERMS FOR TIME STEP  3, STRESS PERIOD  4 READ UNFORMATTED ON UNIT 10
                    --------------------------------------------------------------------------------------------

                    "QZZ             " FLOW TERMS FOR TIME STEP  3, STRESS PERIOD  4 READ UNFORMATTED ON UNIT 10
                    --------------------------------------------------------------------------------------------

                    "STO             " FLOW TERMS FOR TIME STEP  3, STRESS PERIOD  4 READ UNFORMATTED ON UNIT 10
                    --------------------------------------------------------------------------------------------

 MAXIMUM STEPSIZE DURING WHICH ANY PARTICLE CANNOT MOVE MORE THAN ONE CELL
 =  602.3    (WHEN MIN. R.F.=1)  AT K=   2, I=   5, J=   5

 MAXIMUM STEPSIZE WHICH MEETS STABILITY CRITERION OF THE ADVECTION TERM
 (FOR PURE FINITE-DIFFERENCE OPTION, MIXELM=0) 
 =  189.8    (WHEN MIN. R.F.=1)  AT K=   2, I=   5, J=   5

                    "CNH             " FLOW TERMS FOR TIME STEP  3, STRESS PERIOD  4 READ UNFORMATTED ON UNIT 10
                    --------------------------------------------------------------------------------------------

                    "WEL             " FLOW TERMS FOR TIME STEP  3, STRESS PERIOD  4 READ UNFORMATTED ON UNIT 10
                    --------------------------------------------------------------------------------------------

                    "GHB             " FLOW TERMS FOR TIME STEP  3, STRESS PERIOD  4 READ UNFORMATTED ON UNIT 10
                    --------------------------------------------------------------------------------------------


 TOTAL NUMBER OF POINT SOURCES/SINKS PRESENT IN THE FLOW MODEL =    41

 MAXIMUM STEPSIZE WHICH MEETS STABILITY CRITERION OF THE SINK & SOURCE TERM
 =  128.6    (WHEN MIN. R.F.=1)  AT K=   1, I=   5, J=   5

 MAXIMUM STEPSIZE WHICH MEETS STABILITY CRITERION OF THE DISPERSION TERM
 =  383.3    (WHEN MIN. R.F.=1)  AT K=   1, I=   5, J=   5


     1 CALLS TO GCG PACKAGE FOR TRANSPORT TIME STEP   1 IN FLOW TIME STEP   3 STRESS PERIOD   4
     2 TOTAL ITERATIONS
  MAXIMUM CONCENTRATION CHANGES FOR EACH ITERATION:
  MAX. CHANGE LAYER,ROW,COL MAX. CHANGE LAYER,ROW,COL MAX. CHANGE LAYER,ROW,COL MAX. CHANGE LAYER,ROW,COL MAX. CHANGE LAYER,ROW,COL
 ------------------------------------------------------------------------------------------------------------------------------------
   0.1885E-02 (  1,  5,  5)  0.1421E-13 (  2,  3,  7)


                                          ================================================
                                                         TIME STEP NO.  004
                                          ================================================

 FROM TIME =   204.00     TO    205.00    


                    "THKSAT          " FLOW TERMS FOR TIME STEP  4, STRESS PERIOD  4 READ UNFORMATTED ON UNIT 10
                    --------------------------------------------------------------------------------------------

                    "QXX             " FLOW TERMS FOR TIME STEP  4, STRESS PERIOD  4 READ UNFORMATTED ON UNIT 10
                    --------------------------------------------------------------------------------------------

                    "QYY             " FLOW TERMS FOR TIME STEP  4, STRESS PERIOD  4 READ UNFORMATTED ON UNIT 10
                    --------------------------------------------------------------------------------------------

                    "QZZ             " FLOW TERMS FOR TIME STEP  4, STRESS PERIOD  4 READ UNFORMATTED ON UNIT 10
                    --------------------------------------------------------------------------------------------

                    "STO             " FLOW TERMS FOR TIME STEP  4, STRESS PERIOD  4 READ UNFORMATTED ON UNIT 10
                    --------------------------------------------------------------------------------------------

 MAXIMUM STEPSIZE DURING WHICH ANY PARTICLE CANNOT MOVE MORE THAN ONE CELL
 =  602.1    (WHEN MIN. R.F.=1)  AT K=   2, I=   5, J=   5

 MAXIMUM STEPSIZE WHICH MEETS STABILITY CRITERION OF THE ADVECTION TERM
 (FOR PURE FINITE-DIFFERENCE OPTION, MIXELM=0) 
 =  190.4    (WHEN MIN. R.F.=1)  AT K=   2, I=   5, J=   5

                    "CNH             " FLOW TERMS FOR TIME STEP  4, STRESS PERIOD  4 READ UNFORMATTED ON UNIT 10
                    --------------------------------------------------------------------------------------------

                    "WEL             " FLOW TERMS FOR TIME STEP  4, STRESS PERIOD  4 READ UNFORMATTED ON UNIT 10
                    --------------------------------------------------------------------------------------------

                    "GHB             " FLOW TERMS FOR TIME STEP  4, STRESS PERIOD  4 READ UNFORMATTED ON UNIT 10
                    --------------------------------------------------------------------------------------------


 TOTAL NUMBER OF POINT SOURCES/SINKS PRESENT IN THE FLOW MODEL =    41

 MAXIMUM STEPSIZE WHICH MEETS STABILITY CRITERION OF THE SINK & SOURCE TERM
 =  128.6    (WHEN MIN. R.F.=1)  AT K=   1, I=   5, J=   5

 MAXIMUM STEPSIZE WHICH MEETS STABILITY CRITERION OF THE DISPERSION TERM
 =  383.3    (WHEN MIN. R.F.=1)  AT K=   1, I=   5, J=   5


     1 CALLS TO GCG PACKAGE FOR TRANSPORT TIME STEP   1 IN FLOW TIME STEP   4 STRESS PERIOD   4
     2 TOTAL ITERATIONS
  MAXIMUM CONCENTRATION CHANGES FOR EACH ITERATION:
  MAX. CHANGE LAYER,ROW,COL MAX. CHANGE LAYER,ROW,COL MAX. CHANGE LAYER,ROW,COL MAX. CHANGE LAYER,ROW,COL MAX. CHANGE LAYER,ROW,COL
 ------------------------------------------------------------------------------------------------------------------------------------
   0.1866E-02 (  1,  5,  5)  0.1421E-13 (  2,  3,  7)


                                          ================================================
                                                         TIME STEP NO.  005
                                          ================================================

 FROM TIME =   205.00     TO    206.00    


                    "THKSAT          " FLOW TERMS FOR TIME STEP  5, STRESS PERIOD  4 READ UNFORMATTED ON UNIT 10
                    --------------------------------------------------------------------------------------------

                    "QXX             " FLOW TERMS FOR TIME STEP  5, STRESS PERIOD  4 READ UNFORMATTED ON UNIT 10
                    --------------------------------------------------------------------------------------------

                    "QYY             " FLOW TERMS FOR TIME STEP  5, STRESS PERIOD  4 READ UNFORMATTED ON UNIT 10
                    --------------------------------------------------------------------------------------------

                    "QZZ             " FLOW TERMS FOR TIME STEP  5, STRESS PERIOD  4 READ UNFORMATTED ON UNIT 10
                    --------------------------------------------------------------------------------------------

                    "STO             " FLOW TERMS FOR TIME STEP  5, STRESS PERIOD  4 READ UNFORMATTED ON UNIT 10
                    --------------------------------------------------------------------------------------------

 MAXIMUM STEPSIZE DURING WHICH ANY PARTICLE CANNOT MOVE MORE THAN ONE CELL
 =  602.0    (WHEN MIN. R.F.=1)  AT K=   2, I=   5, J=   5

 MAXIMUM STEPSIZE WHICH MEETS STABILITY CRITERION OF THE ADVECTION TERM
 (FOR PURE FINITE-DIFFERENCE OPTION, MIXELM=0) 
 =  190.7    (WHEN MIN. R.F.=1)  AT K=   2, I=   5, J=   5

                    "CNH             " FLOW TERMS FOR TIME STEP  5, STRESS PERIOD  4 READ UNFORMATTED ON UNIT 10
                    --------------------------------------------------------------------------------------------

                    "WEL             " FLOW TERMS FOR TIME STEP  5, STRESS PERIOD  4 READ UNFORMATTED ON UNIT 10
                    --------------------------------------------------------------------------------------------

                    "GHB             " FLOW TERMS FOR TIME STEP  5, STRESS PERIOD  4 READ UNFORMATTED ON UNIT 10
                    --------------------------------------------------------------------------------------------


 TOTAL NUMBER OF POINT SOURCES/SINKS PRESENT IN THE FLOW MODEL =    41

 MAXIMUM STEPSIZE WHICH MEETS STABILITY CRITERION OF THE SINK & SOURCE TERM
 =  128.6    (WHEN MIN. R.F.=1)  AT K=   1, I=   5, J=   5

 MAXIMUM STEPSIZE WHICH MEETS STABILITY CRITERION OF THE DISPERSION TERM
 =  383.3    (WHEN MIN. R.F.=1)  AT K=   1, I=   5, J=   5


     1 CALLS TO GCG PACKAGE FOR TRANSPORT TIME STEP   1 IN FLOW TIME STEP   5 STRESS PERIOD   4
     2 TOTAL ITERATIONS
  MAXIMUM CONCENTRATION CHANGES FOR EACH ITERATION:
  MAX. CHANGE LAYER,ROW,COL MAX. CHANGE LAYER,ROW,COL MAX. CHANGE LAYER,ROW,COL MAX. CHANGE LAYER,ROW,COL MAX. CHANGE LAYER,ROW,COL
 ------------------------------------------------------------------------------------------------------------------------------------
   0.1845E-02 (  1,  5,  5)  0.1421E-13 (  2,  3,  7)


                                          ================================================
                                                         TIME STEP NO.  006
                                          ================================================

 FROM TIME =   206.00     TO    207.00    


                    "THKSAT          " FLOW TERMS FOR TIME STEP  6, STRESS PERIOD  4 READ UNFORMATTED ON UNIT 10
                    --------------------------------------------------------------------------------------------

                    "QXX             " FLOW TERMS FOR TIME STEP  6, STRESS PERIOD  4 READ UNFORMATTED ON UNIT 10
                    --------------------------------------------------------------------------------------------

                    "QYY             " FLOW TERMS FOR TIME STEP  6, STRESS PERIOD  4 READ UNFORMATTED ON UNIT 10
                    --------------------------------------------------------------------------------------------

                    "QZZ             " FLOW TERMS FOR TIME STEP  6, STRESS PERIOD  4 READ UNFORMATTED ON UNIT 10
                    --------------------------------------------------------------------------------------------

                    "STO             " FLOW TERMS FOR TIME STEP  6, STRESS PERIOD  4 READ UNFORMATTED ON UNIT 10
                    --------------------------------------------------------------------------------------------

 MAXIMUM STEPSIZE DURING WHICH ANY PARTICLE CANNOT MOVE MORE THAN ONE CELL
 =  602.0    (WHEN MIN. R.F.=1)  AT K=   2, I=   5, J=   5

 MAXIMUM STEPSIZE WHICH MEETS STABILITY CRITERION OF THE ADVECTION TERM
 (FOR PURE FINITE-DIFFERENCE OPTION, MIXELM=0) 
 =  190.8    (WHEN MIN. R.F.=1)  AT K=   2, I=   5, J=   5

                    "CNH             " FLOW TERMS FOR TIME STEP  6, STRESS PERIOD  4 READ UNFORMATTED ON UNIT 10
                    --------------------------------------------------------------------------------------------

                    "WEL             " FLOW TERMS FOR TIME STEP  6, STRESS PERIOD  4 READ UNFORMATTED ON UNIT 10
                    --------------------------------------------------------------------------------------------

                    "GHB             " FLOW TERMS FOR TIME STEP  6, STRESS PERIOD  4 READ UNFORMATTED ON UNIT 10
                    --------------------------------------------------------------------------------------------


 TOTAL NUMBER OF POINT SOURCES/SINKS PRESENT IN THE FLOW MODEL =    41

 MAXIMUM STEPSIZE WHICH MEETS STABILITY CRITERION OF THE SINK & SOURCE TERM
 =  128.6    (WHEN MIN. R.F.=1)  AT K=   1, I=   5, J=   5

 MAXIMUM STEPSIZE WHICH MEETS STABILITY CRITERION OF THE DISPERSION TERM
 =  383.3    (WHEN MIN. R.F.=1)  AT K=   1, I=   5, J=   5


     1 CALLS TO GCG PACKAGE FOR TRANSPORT TIME STEP   1 IN FLOW TIME STEP   6 STRESS PERIOD   4
     2 TOTAL ITERATIONS
  MAXIMUM CONCENTRATION CHANGES FOR EACH ITERATION:
  MAX. CHANGE LAYER,ROW,COL MAX. CHANGE LAYER,ROW,COL MAX. CHANGE LAYER,ROW,COL MAX. CHANGE LAYER,ROW,COL MAX. CHANGE LAYER,ROW,COL
 ------------------------------------------------------------------------------------------------------------------------------------
   0.1821E-02 (  1,  5,  5)  0.1421E-13 (  2,  3,  7)


                                          ================================================
                                                         TIME STEP NO.  007
                                          ================================================

 FROM TIME =   207.00     TO    208.00    


                    "THKSAT          " FLOW TERMS FOR TIME STEP  7, STRESS PERIOD  4 READ UNFORMATTED ON UNIT 10
                    --------------------------------------------------------------------------------------------

                    "QXX             " FLOW TERMS FOR TIME STEP  7, STRESS PERIOD  4 READ UNFORMATTED ON UNIT 10
                    --------------------------------------------------------------------------------------------

                    "QYY             " FLOW TERMS FOR TIME STEP  7, STRESS PERIOD  4 READ UNFORMATTED ON UNIT 10
                    --------------------------------------------------------------------------------------------

                    "QZZ             " FLOW TERMS FOR TIME STEP  7, STRESS PERIOD  4 READ UNFORMATTED ON UNIT 10
                    --------------------------------------------------------------------------------------------

                    "STO             " FLOW TERMS FOR TIME STEP  7, STRESS PERIOD  4 READ UNFORMATTED ON UNIT 10
                    --------------------------------------------------------------------------------------------

 MAXIMUM STEPSIZE DURING WHICH ANY PARTICLE CANNOT MOVE MORE THAN ONE CELL
 =  601.9    (WHEN MIN. R.F.=1)  AT K=   2, I=   5, J=   5

 MAXIMUM STEPSIZE WHICH MEETS STABILITY CRITERION OF THE ADVECTION TERM
 (FOR PURE FINITE-DIFFERENCE OPTION, MIXELM=0) 
 =  190.8    (WHEN MIN. R.F.=1)  AT K=   2, I=   5, J=   5

                    "CNH             " FLOW TERMS FOR TIME STEP  7, STRESS PERIOD  4 READ UNFORMATTED ON UNIT 10
                    --------------------------------------------------------------------------------------------

                    "WEL             " FLOW TERMS FOR TIME STEP  7, STRESS PERIOD  4 READ UNFORMATTED ON UNIT 10
                    --------------------------------------------------------------------------------------------

                    "GHB             " FLOW TERMS FOR TIME STEP  7, STRESS PERIOD  4 READ UNFORMATTED ON UNIT 10
                    --------------------------------------------------------------------------------------------


 TOTAL NUMBER OF POINT SOURCES/SINKS PRESENT IN THE FLOW MODEL =    41

 MAXIMUM STEPSIZE WHICH MEETS STABILITY CRITERION OF THE SINK & SOURCE TERM
 =  128.6    (WHEN MIN. R.F.=1)  AT K=   1, I=   5, J=   5

 MAXIMUM STEPSIZE WHICH MEETS STABILITY CRITERION OF THE DISPERSION TERM
 =  383.3    (WHEN MIN. R.F.=1)  AT K=   1, I=   5, J=   5


     1 CALLS TO GCG PACKAGE FOR TRANSPORT TIME STEP   1 IN FLOW TIME STEP   7 STRESS PERIOD   4
     2 TOTAL ITERATIONS
  MAXIMUM CONCENTRATION CHANGES FOR EACH ITERATION:
  MAX. CHANGE LAYER,ROW,COL MAX. CHANGE LAYER,ROW,COL MAX. CHANGE LAYER,ROW,COL MAX. CHANGE LAYER,ROW,COL MAX. CHANGE LAYER,ROW,COL
 ------------------------------------------------------------------------------------------------------------------------------------
   0.1802E-02 (  1,  5,  5)  0.1421E-13 (  2,  3,  7)


                                          ================================================
                                                         TIME STEP NO.  008
                                          ================================================

 FROM TIME =   208.00     TO    209.00    


                    "THKSAT          " FLOW TERMS FOR TIME STEP  8, STRESS PERIOD  4 READ UNFORMATTED ON UNIT 10
                    --------------------------------------------------------------------------------------------

                    "QXX             " FLOW TERMS FOR TIME STEP  8, STRESS PERIOD  4 READ UNFORMATTED ON UNIT 10
                    --------------------------------------------------------------------------------------------

                    "QYY             " FLOW TERMS FOR TIME STEP  8, STRESS PERIOD  4 READ UNFORMATTED ON UNIT 10
                    --------------------------------------------------------------------------------------------

                    "QZZ             " FLOW TERMS FOR TIME STEP  8, STRESS PERIOD  4 READ UNFORMATTED ON UNIT 10
                    --------------------------------------------------------------------------------------------

                    "STO             " FLOW TERMS FOR TIME STEP  8, STRESS PERIOD  4 READ UNFORMATTED ON UNIT 10
                    --------------------------------------------------------------------------------------------

 MAXIMUM STEPSIZE DURING WHICH ANY PARTICLE CANNOT MOVE MORE THAN ONE CELL
 =  601.9    (WHEN MIN. R.F.=1)  AT K=   2, I=   5, J=   5

 MAXIMUM STEPSIZE WHICH MEETS STABILITY CRITERION OF THE ADVECTION TERM
 (FOR PURE FINITE-DIFFERENCE OPTION, MIXELM=0) 
 =  190.8    (WHEN MIN. R.F.=1)  AT K=   2, I=   5, J=   5

                    "CNH             " FLOW TERMS FOR TIME STEP  8, STRESS PERIOD  4 READ UNFORMATTED ON UNIT 10
                    --------------------------------------------------------------------------------------------

                    "WEL             " FLOW TERMS FOR TIME STEP  8, STRESS PERIOD  4 READ UNFORMATTED ON UNIT 10
                    --------------------------------------------------------------------------------------------

                    "GHB             " FLOW TERMS FOR TIME STEP  8, STRESS PERIOD  4 READ UNFORMATTED ON UNIT 10
                    --------------------------------------------------------------------------------------------


 TOTAL NUMBER OF POINT SOURCES/SINKS PRESENT IN THE FLOW MODEL =    41

 MAXIMUM STEPSIZE WHICH MEETS STABILITY CRITERION OF THE SINK & SOURCE TERM
 =  128.6    (WHEN MIN. R.F.=1)  AT K=   1, I=   5, J=   5

 MAXIMUM STEPSIZE WHICH MEETS STABILITY CRITERION OF THE DISPERSION TERM
 =  383.3    (WHEN MIN. R.F.=1)  AT K=   1, I=   5, J=   5


     1 CALLS TO GCG PACKAGE FOR TRANSPORT TIME STEP   1 IN FLOW TIME STEP   8 STRESS PERIOD   4
     2 TOTAL ITERATIONS
  MAXIMUM CONCENTRATION CHANGES FOR EACH ITERATION:
  MAX. CHANGE LAYER,ROW,COL MAX. CHANGE LAYER,ROW,COL MAX. CHANGE LAYER,ROW,COL MAX. CHANGE LAYER,ROW,COL MAX. CHANGE LAYER,ROW,COL
 ------------------------------------------------------------------------------------------------------------------------------------
   0.1782E-02 (  1,  5,  5)  0.1421E-13 (  2,  3,  7)


                                          ================================================
                                                         TIME STEP NO.  009
                                          ================================================

 FROM TIME =   209.00     TO    210.00    


                    "THKSAT          " FLOW TERMS FOR TIME STEP  9, STRESS PERIOD  4 READ UNFORMATTED ON UNIT 10
                    --------------------------------------------------------------------------------------------

                    "QXX             " FLOW TERMS FOR TIME STEP  9, STRESS PERIOD  4 READ UNFORMATTED ON UNIT 10
                    --------------------------------------------------------------------------------------------

                    "QYY             " FLOW TERMS FOR TIME STEP  9, STRESS PERIOD  4 READ UNFORMATTED ON UNIT 10
                    --------------------------------------------------------------------------------------------

                    "QZZ             " FLOW TERMS FOR TIME STEP  9, STRESS PERIOD  4 READ UNFORMATTED ON UNIT 10
                    --------------------------------------------------------------------------------------------

                    "STO             " FLOW TERMS FOR TIME STEP  9, STRESS PERIOD  4 READ UNFORMATTED ON UNIT 10
                    --------------------------------------------------------------------------------------------

 MAXIMUM STEPSIZE DURING WHICH ANY PARTICLE CANNOT MOVE MORE THAN ONE CELL
 =  601.9    (WHEN MIN. R.F.=1)  AT K=   2, I=   5, J=   5

 MAXIMUM STEPSIZE WHICH MEETS STABILITY CRITERION OF THE ADVECTION TERM
 (FOR PURE FINITE-DIFFERENCE OPTION, MIXELM=0) 
 =  190.7    (WHEN MIN. R.F.=1)  AT K=   2, I=   5, J=   5

                    "CNH             " FLOW TERMS FOR TIME STEP  9, STRESS PERIOD  4 READ UNFORMATTED ON UNIT 10
                    --------------------------------------------------------------------------------------------

                    "WEL             " FLOW TERMS FOR TIME STEP  9, STRESS PERIOD  4 READ UNFORMATTED ON UNIT 10
                    --------------------------------------------------------------------------------------------

                    "GHB             " FLOW TERMS FOR TIME STEP  9, STRESS PERIOD  4 READ UNFORMATTED ON UNIT 10
                    --------------------------------------------------------------------------------------------


 TOTAL NUMBER OF POINT SOURCES/SINKS PRESENT IN THE FLOW MODEL =    41

 MAXIMUM STEPSIZE WHICH MEETS STABILITY CRITERION OF THE SINK & SOURCE TERM
 =  128.6    (WHEN MIN. R.F.=1)  AT K=   1, I=   5, J=   5

 MAXIMUM STEPSIZE WHICH MEETS STABILITY CRITERION OF THE DISPERSION TERM
 =  383.4    (WHEN MIN. R.F.=1)  AT K=   1, I=   5, J=   5


     1 CALLS TO GCG PACKAGE FOR TRANSPORT TIME STEP   1 IN FLOW TIME STEP   9 STRESS PERIOD   4
     2 TOTAL ITERATIONS
  MAXIMUM CONCENTRATION CHANGES FOR EACH ITERATION:
  MAX. CHANGE LAYER,ROW,COL MAX. CHANGE LAYER,ROW,COL MAX. CHANGE LAYER,ROW,COL MAX. CHANGE LAYER,ROW,COL MAX. CHANGE LAYER,ROW,COL
 ------------------------------------------------------------------------------------------------------------------------------------
   0.1763E-02 (  1,  5,  5)  0.1421E-13 (  2,  3,  7)


                                          ================================================
                                                         TIME STEP NO.  010
                                          ================================================

 FROM TIME =   210.00     TO    211.00    


                    "THKSAT          " FLOW TERMS FOR TIME STEP 10, STRESS PERIOD  4 READ UNFORMATTED ON UNIT 10
                    --------------------------------------------------------------------------------------------

                    "QXX             " FLOW TERMS FOR TIME STEP 10, STRESS PERIOD  4 READ UNFORMATTED ON UNIT 10
                    --------------------------------------------------------------------------------------------

                    "QYY             " FLOW TERMS FOR TIME STEP 10, STRESS PERIOD  4 READ UNFORMATTED ON UNIT 10
                    --------------------------------------------------------------------------------------------

                    "QZZ             " FLOW TERMS FOR TIME STEP 10, STRESS PERIOD  4 READ UNFORMATTED ON UNIT 10
                    --------------------------------------------------------------------------------------------

                    "STO             " FLOW TERMS FOR TIME STEP 10, STRESS PERIOD  4 READ UNFORMATTED ON UNIT 10
                    --------------------------------------------------------------------------------------------

 MAXIMUM STEPSIZE DURING WHICH ANY PARTICLE CANNOT MOVE MORE THAN ONE CELL
 =  601.9    (WHEN MIN. R.F.=1)  AT K=   2, I=   5, J=   5

 MAXIMUM STEPSIZE WHICH MEETS STABILITY CRITERION OF THE ADVECTION TERM
 (FOR PURE FINITE-DIFFERENCE OPTION, MIXELM=0) 
 =  190.7    (WHEN MIN. R.F.=1)  AT K=   2, I=   5, J=   5

                    "CNH             " FLOW TERMS FOR TIME STEP 10, STRESS PERIOD  4 READ UNFORMATTED ON UNIT 10
                    --------------------------------------------------------------------------------------------

                    "WEL             " FLOW TERMS FOR TIME STEP 10, STRESS PERIOD  4 READ UNFORMATTED ON UNIT 10
                    --------------------------------------------------------------------------------------------

                    "GHB             " FLOW TERMS FOR TIME STEP 10, STRESS PERIOD  4 READ UNFORMATTED ON UNIT 10
                    --------------------------------------------------------------------------------------------


 TOTAL NUMBER OF POINT SOURCES/SINKS PRESENT IN THE FLOW MODEL =    41

 MAXIMUM STEPSIZE WHICH MEETS STABILITY CRITERION OF THE SINK & SOURCE TERM
 =  128.6    (WHEN MIN. R.F.=1)  AT K=   1, I=   5, J=   5

 MAXIMUM STEPSIZE WHICH MEETS STABILITY CRITERION OF THE DISPERSION TERM
 =  383.4    (WHEN MIN. R.F.=1)  AT K=   1, I=   5, J=   5


     1 CALLS TO GCG PACKAGE FOR TRANSPORT TIME STEP   1 IN FLOW TIME STEP  10 STRESS PERIOD   4
     2 TOTAL ITERATIONS
  MAXIMUM CONCENTRATION CHANGES FOR EACH ITERATION:
  MAX. CHANGE LAYER,ROW,COL MAX. CHANGE LAYER,ROW,COL MAX. CHANGE LAYER,ROW,COL MAX. CHANGE LAYER,ROW,COL MAX. CHANGE LAYER,ROW,COL
 ------------------------------------------------------------------------------------------------------------------------------------
   0.1745E-02 (  1,  5,  5)  0.1421E-13 (  2,  3,  7)


                                          ================================================
                                                         TIME STEP NO.  011
                                          ================================================

 FROM TIME =   211.00     TO    212.00    


                    "THKSAT          " FLOW TERMS FOR TIME STEP 11, STRESS PERIOD  4 READ UNFORMATTED ON UNIT 10
                    --------------------------------------------------------------------------------------------

                    "QXX             " FLOW TERMS FOR TIME STEP 11, STRESS PERIOD  4 READ UNFORMATTED ON UNIT 10
                    --------------------------------------------------------------------------------------------

                    "QYY             " FLOW TERMS FOR TIME STEP 11, STRESS PERIOD  4 READ UNFORMATTED ON UNIT 10
                    --------------------------------------------------------------------------------------------

                    "QZZ             " FLOW TERMS FOR TIME STEP 11, STRESS PERIOD  4 READ UNFORMATTED ON UNIT 10
                    --------------------------------------------------------------------------------------------

                    "STO             " FLOW TERMS FOR TIME STEP 11, STRESS PERIOD  4 READ UNFORMATTED ON UNIT 10
                    --------------------------------------------------------------------------------------------

 MAXIMUM STEPSIZE DURING WHICH ANY PARTICLE CANNOT MOVE MORE THAN ONE CELL
 =  601.9    (WHEN MIN. R.F.=1)  AT K=   2, I=   5, J=   5

 MAXIMUM STEPSIZE WHICH MEETS STABILITY CRITERION OF THE ADVECTION TERM
 (FOR PURE FINITE-DIFFERENCE OPTION, MIXELM=0) 
 =  190.6    (WHEN MIN. R.F.=1)  AT K=   2, I=   5, J=   5

                    "CNH             " FLOW TERMS FOR TIME STEP 11, STRESS PERIOD  4 READ UNFORMATTED ON UNIT 10
                    --------------------------------------------------------------------------------------------

                    "WEL             " FLOW TERMS FOR TIME STEP 11, STRESS PERIOD  4 READ UNFORMATTED ON UNIT 10
                    --------------------------------------------------------------------------------------------

                    "GHB             " FLOW TERMS FOR TIME STEP 11, STRESS PERIOD  4 READ UNFORMATTED ON UNIT 10
                    --------------------------------------------------------------------------------------------


 TOTAL NUMBER OF POINT SOURCES/SINKS PRESENT IN THE FLOW MODEL =    41

 MAXIMUM STEPSIZE WHICH MEETS STABILITY CRITERION OF THE SINK & SOURCE TERM
 =  128.6    (WHEN MIN. R.F.=1)  AT K=   1, I=   5, J=   5

 MAXIMUM STEPSIZE WHICH MEETS STABILITY CRITERION OF THE DISPERSION TERM
 =  383.5    (WHEN MIN. R.F.=1)  AT K=   1, I=   5, J=   5


     1 CALLS TO GCG PACKAGE FOR TRANSPORT TIME STEP   1 IN FLOW TIME STEP  11 STRESS PERIOD   4
     2 TOTAL ITERATIONS
  MAXIMUM CONCENTRATION CHANGES FOR EACH ITERATION:
  MAX. CHANGE LAYER,ROW,COL MAX. CHANGE LAYER,ROW,COL MAX. CHANGE LAYER,ROW,COL MAX. CHANGE LAYER,ROW,COL MAX. CHANGE LAYER,ROW,COL
 ------------------------------------------------------------------------------------------------------------------------------------
   0.1726E-02 (  1,  5,  5)  0.1421E-13 (  2,  3,  7)


                                          ================================================
                                                         TIME STEP NO.  012
                                          ================================================

 FROM TIME =   212.00     TO    213.00    


                    "THKSAT          " FLOW TERMS FOR TIME STEP 12, STRESS PERIOD  4 READ UNFORMATTED ON UNIT 10
                    --------------------------------------------------------------------------------------------

                    "QXX             " FLOW TERMS FOR TIME STEP 12, STRESS PERIOD  4 READ UNFORMATTED ON UNIT 10
                    --------------------------------------------------------------------------------------------

                    "QYY             " FLOW TERMS FOR TIME STEP 12, STRESS PERIOD  4 READ UNFORMATTED ON UNIT 10
                    --------------------------------------------------------------------------------------------

                    "QZZ             " FLOW TERMS FOR TIME STEP 12, STRESS PERIOD  4 READ UNFORMATTED ON UNIT 10
                    --------------------------------------------------------------------------------------------

                    "STO             " FLOW TERMS FOR TIME STEP 12, STRESS PERIOD  4 READ UNFORMATTED ON UNIT 10
                    --------------------------------------------------------------------------------------------

 MAXIMUM STEPSIZE DURING WHICH ANY PARTICLE CANNOT MOVE MORE THAN ONE CELL
 =  601.8    (WHEN MIN. R.F.=1)  AT K=   2, I=   5, J=   5

 MAXIMUM STEPSIZE WHICH MEETS STABILITY CRITERION OF THE ADVECTION TERM
 (FOR PURE FINITE-DIFFERENCE OPTION, MIXELM=0) 
 =  190.6    (WHEN MIN. R.F.=1)  AT K=   2, I=   5, J=   5

                    "CNH             " FLOW TERMS FOR TIME STEP 12, STRESS PERIOD  4 READ UNFORMATTED ON UNIT 10
                    --------------------------------------------------------------------------------------------

                    "WEL             " FLOW TERMS FOR TIME STEP 12, STRESS PERIOD  4 READ UNFORMATTED ON UNIT 10
                    --------------------------------------------------------------------------------------------

                    "GHB             " FLOW TERMS FOR TIME STEP 12, STRESS PERIOD  4 READ UNFORMATTED ON UNIT 10
                    --------------------------------------------------------------------------------------------


 TOTAL NUMBER OF POINT SOURCES/SINKS PRESENT IN THE FLOW MODEL =    41

 MAXIMUM STEPSIZE WHICH MEETS STABILITY CRITERION OF THE SINK & SOURCE TERM
 =  128.6    (WHEN MIN. R.F.=1)  AT K=   1, I=   5, J=   5

 MAXIMUM STEPSIZE WHICH MEETS STABILITY CRITERION OF THE DISPERSION TERM
 =  383.5    (WHEN MIN. R.F.=1)  AT K=   1, I=   5, J=   5


     1 CALLS TO GCG PACKAGE FOR TRANSPORT TIME STEP   1 IN FLOW TIME STEP  12 STRESS PERIOD   4
     2 TOTAL ITERATIONS
  MAXIMUM CONCENTRATION CHANGES FOR EACH ITERATION:
  MAX. CHANGE LAYER,ROW,COL MAX. CHANGE LAYER,ROW,COL MAX. CHANGE LAYER,ROW,COL MAX. CHANGE LAYER,ROW,COL MAX. CHANGE LAYER,ROW,COL
 ------------------------------------------------------------------------------------------------------------------------------------
   0.1708E-02 (  1,  5,  5)  0.1421E-13 (  2,  3,  7)


                                          ================================================
                                                         TIME STEP NO.  013
                                          ================================================

 FROM TIME =   213.00     TO    214.00    


                    "THKSAT          " FLOW TERMS FOR TIME STEP 13, STRESS PERIOD  4 READ UNFORMATTED ON UNIT 10
                    --------------------------------------------------------------------------------------------

                    "QXX             " FLOW TERMS FOR TIME STEP 13, STRESS PERIOD  4 READ UNFORMATTED ON UNIT 10
                    --------------------------------------------------------------------------------------------

                    "QYY             " FLOW TERMS FOR TIME STEP 13, STRESS PERIOD  4 READ UNFORMATTED ON UNIT 10
                    --------------------------------------------------------------------------------------------

                    "QZZ             " FLOW TERMS FOR TIME STEP 13, STRESS PERIOD  4 READ UNFORMATTED ON UNIT 10
                    --------------------------------------------------------------------------------------------

                    "STO             " FLOW TERMS FOR TIME STEP 13, STRESS PERIOD  4 READ UNFORMATTED ON UNIT 10
                    --------------------------------------------------------------------------------------------

 MAXIMUM STEPSIZE DURING WHICH ANY PARTICLE CANNOT MOVE MORE THAN ONE CELL
 =  601.8    (WHEN MIN. R.F.=1)  AT K=   2, I=   5, J=   5

 MAXIMUM STEPSIZE WHICH MEETS STABILITY CRITERION OF THE ADVECTION TERM
 (FOR PURE FINITE-DIFFERENCE OPTION, MIXELM=0) 
 =  190.5    (WHEN MIN. R.F.=1)  AT K=   2, I=   5, J=   5

                    "CNH             " FLOW TERMS FOR TIME STEP 13, STRESS PERIOD  4 READ UNFORMATTED ON UNIT 10
                    --------------------------------------------------------------------------------------------

                    "WEL             " FLOW TERMS FOR TIME STEP 13, STRESS PERIOD  4 READ UNFORMATTED ON UNIT 10
                    --------------------------------------------------------------------------------------------

                    "GHB             " FLOW TERMS FOR TIME STEP 13, STRESS PERIOD  4 READ UNFORMATTED ON UNIT 10
                    --------------------------------------------------------------------------------------------


 TOTAL NUMBER OF POINT SOURCES/SINKS PRESENT IN THE FLOW MODEL =    41

 MAXIMUM STEPSIZE WHICH MEETS STABILITY CRITERION OF THE SINK & SOURCE TERM
 =  128.6    (WHEN MIN. R.F.=1)  AT K=   1, I=   5, J=   5

 MAXIMUM STEPSIZE WHICH MEETS STABILITY CRITERION OF THE DISPERSION TERM
 =  383.5    (WHEN MIN. R.F.=1)  AT K=   1, I=   5, J=   5


     1 CALLS TO GCG PACKAGE FOR TRANSPORT TIME STEP   1 IN FLOW TIME STEP  13 STRESS PERIOD   4
     2 TOTAL ITERATIONS
  MAXIMUM CONCENTRATION CHANGES FOR EACH ITERATION:
  MAX. CHANGE LAYER,ROW,COL MAX. CHANGE LAYER,ROW,COL MAX. CHANGE LAYER,ROW,COL MAX. CHANGE LAYER,ROW,COL MAX. CHANGE LAYER,ROW,COL
 ------------------------------------------------------------------------------------------------------------------------------------
   0.1690E-02 (  1,  5,  5)  0.1421E-13 (  2,  3,  7)


                                          ================================================
                                                         TIME STEP NO.  014
                                          ================================================

 FROM TIME =   214.00     TO    215.00    


                    "THKSAT          " FLOW TERMS FOR TIME STEP 14, STRESS PERIOD  4 READ UNFORMATTED ON UNIT 10
                    --------------------------------------------------------------------------------------------

                    "QXX             " FLOW TERMS FOR TIME STEP 14, STRESS PERIOD  4 READ UNFORMATTED ON UNIT 10
                    --------------------------------------------------------------------------------------------

                    "QYY             " FLOW TERMS FOR TIME STEP 14, STRESS PERIOD  4 READ UNFORMATTED ON UNIT 10
                    --------------------------------------------------------------------------------------------

                    "QZZ             " FLOW TERMS FOR TIME STEP 14, STRESS PERIOD  4 READ UNFORMATTED ON UNIT 10
                    --------------------------------------------------------------------------------------------

                    "STO             " FLOW TERMS FOR TIME STEP 14, STRESS PERIOD  4 READ UNFORMATTED ON UNIT 10
                    --------------------------------------------------------------------------------------------

 MAXIMUM STEPSIZE DURING WHICH ANY PARTICLE CANNOT MOVE MORE THAN ONE CELL
 =  601.8    (WHEN MIN. R.F.=1)  AT K=   2, I=   5, J=   5

 MAXIMUM STEPSIZE WHICH MEETS STABILITY CRITERION OF THE ADVECTION TERM
 (FOR PURE FINITE-DIFFERENCE OPTION, MIXELM=0) 
 =  190.5    (WHEN MIN. R.F.=1)  AT K=   2, I=   5, J=   5

                    "CNH             " FLOW TERMS FOR TIME STEP 14, STRESS PERIOD  4 READ UNFORMATTED ON UNIT 10
                    --------------------------------------------------------------------------------------------

                    "WEL             " FLOW TERMS FOR TIME STEP 14, STRESS PERIOD  4 READ UNFORMATTED ON UNIT 10
                    --------------------------------------------------------------------------------------------

                    "GHB             " FLOW TERMS FOR TIME STEP 14, STRESS PERIOD  4 READ UNFORMATTED ON UNIT 10
                    --------------------------------------------------------------------------------------------


 TOTAL NUMBER OF POINT SOURCES/SINKS PRESENT IN THE FLOW MODEL =    41

 MAXIMUM STEPSIZE WHICH MEETS STABILITY CRITERION OF THE SINK & SOURCE TERM
 =  128.6    (WHEN MIN. R.F.=1)  AT K=   1, I=   5, J=   5

 MAXIMUM STEPSIZE WHICH MEETS STABILITY CRITERION OF THE DISPERSION TERM
 =  383.6    (WHEN MIN. R.F.=1)  AT K=   1, I=   5, J=   5


     1 CALLS TO GCG PACKAGE FOR TRANSPORT TIME STEP   1 IN FLOW TIME STEP  14 STRESS PERIOD   4
     2 TOTAL ITERATIONS
  MAXIMUM CONCENTRATION CHANGES FOR EACH ITERATION:
  MAX. CHANGE LAYER,ROW,COL MAX. CHANGE LAYER,ROW,COL MAX. CHANGE LAYER,ROW,COL MAX. CHANGE LAYER,ROW,COL MAX. CHANGE LAYER,ROW,COL
 ------------------------------------------------------------------------------------------------------------------------------------
   0.1672E-02 (  1,  5,  5)  0.1421E-13 (  2,  3,  7)


                                          ================================================
                                                         TIME STEP NO.  015
                                          ================================================

 FROM TIME =   215.00     TO    216.00    


                    "THKSAT          " FLOW TERMS FOR TIME STEP 15, STRESS PERIOD  4 READ UNFORMATTED ON UNIT 10
                    --------------------------------------------------------------------------------------------

                    "QXX             " FLOW TERMS FOR TIME STEP 15, STRESS PERIOD  4 READ UNFORMATTED ON UNIT 10
                    --------------------------------------------------------------------------------------------

                    "QYY             " FLOW TERMS FOR TIME STEP 15, STRESS PERIOD  4 READ UNFORMATTED ON UNIT 10
                    --------------------------------------------------------------------------------------------

                    "QZZ             " FLOW TERMS FOR TIME STEP 15, STRESS PERIOD  4 READ UNFORMATTED ON UNIT 10
                    --------------------------------------------------------------------------------------------

                    "STO             " FLOW TERMS FOR TIME STEP 15, STRESS PERIOD  4 READ UNFORMATTED ON UNIT 10
                    --------------------------------------------------------------------------------------------

 MAXIMUM STEPSIZE DURING WHICH ANY PARTICLE CANNOT MOVE MORE THAN ONE CELL
 =  601.8    (WHEN MIN. R.F.=1)  AT K=   2, I=   5, J=   5

 MAXIMUM STEPSIZE WHICH MEETS STABILITY CRITERION OF THE ADVECTION TERM
 (FOR PURE FINITE-DIFFERENCE OPTION, MIXELM=0) 
 =  190.5    (WHEN MIN. R.F.=1)  AT K=   2, I=   5, J=   5

                    "CNH             " FLOW TERMS FOR TIME STEP 15, STRESS PERIOD  4 READ UNFORMATTED ON UNIT 10
                    --------------------------------------------------------------------------------------------

                    "WEL             " FLOW TERMS FOR TIME STEP 15, STRESS PERIOD  4 READ UNFORMATTED ON UNIT 10
                    --------------------------------------------------------------------------------------------

                    "GHB             " FLOW TERMS FOR TIME STEP 15, STRESS PERIOD  4 READ UNFORMATTED ON UNIT 10
                    --------------------------------------------------------------------------------------------


 TOTAL NUMBER OF POINT SOURCES/SINKS PRESENT IN THE FLOW MODEL =    41

 MAXIMUM STEPSIZE WHICH MEETS STABILITY CRITERION OF THE SINK & SOURCE TERM
 =  128.6    (WHEN MIN. R.F.=1)  AT K=   1, I=   5, J=   5

 MAXIMUM STEPSIZE WHICH MEETS STABILITY CRITERION OF THE DISPERSION TERM
 =  383.6    (WHEN MIN. R.F.=1)  AT K=   1, I=   5, J=   5


     1 CALLS TO GCG PACKAGE FOR TRANSPORT TIME STEP   1 IN FLOW TIME STEP  15 STRESS PERIOD   4
     2 TOTAL ITERATIONS
  MAXIMUM CONCENTRATION CHANGES FOR EACH ITERATION:
  MAX. CHANGE LAYER,ROW,COL MAX. CHANGE LAYER,ROW,COL MAX. CHANGE LAYER,ROW,COL MAX. CHANGE LAYER,ROW,COL MAX. CHANGE LAYER,ROW,COL
 ------------------------------------------------------------------------------------------------------------------------------------
   0.1654E-02 (  1,  5,  5)  0.1421E-13 (  2,  3,  7)


                                          ================================================
                                                         TIME STEP NO.  016
                                          ================================================

 FROM TIME =   216.00     TO    217.00    


                    "THKSAT          " FLOW TERMS FOR TIME STEP 16, STRESS PERIOD  4 READ UNFORMATTED ON UNIT 10
                    --------------------------------------------------------------------------------------------

                    "QXX             " FLOW TERMS FOR TIME STEP 16, STRESS PERIOD  4 READ UNFORMATTED ON UNIT 10
                    --------------------------------------------------------------------------------------------

                    "QYY             " FLOW TERMS FOR TIME STEP 16, STRESS PERIOD  4 READ UNFORMATTED ON UNIT 10
                    --------------------------------------------------------------------------------------------

                    "QZZ             " FLOW TERMS FOR TIME STEP 16, STRESS PERIOD  4 READ UNFORMATTED ON UNIT 10
                    --------------------------------------------------------------------------------------------

                    "STO             " FLOW TERMS FOR TIME STEP 16, STRESS PERIOD  4 READ UNFORMATTED ON UNIT 10
                    --------------------------------------------------------------------------------------------

 MAXIMUM STEPSIZE DURING WHICH ANY PARTICLE CANNOT MOVE MORE THAN ONE CELL
 =  601.8    (WHEN MIN. R.F.=1)  AT K=   2, I=   5, J=   5

 MAXIMUM STEPSIZE WHICH MEETS STABILITY CRITERION OF THE ADVECTION TERM
 (FOR PURE FINITE-DIFFERENCE OPTION, MIXELM=0) 
 =  190.4    (WHEN MIN. R.F.=1)  AT K=   2, I=   5, J=   5

                    "CNH             " FLOW TERMS FOR TIME STEP 16, STRESS PERIOD  4 READ UNFORMATTED ON UNIT 10
                    --------------------------------------------------------------------------------------------

                    "WEL             " FLOW TERMS FOR TIME STEP 16, STRESS PERIOD  4 READ UNFORMATTED ON UNIT 10
                    --------------------------------------------------------------------------------------------

                    "GHB             " FLOW TERMS FOR TIME STEP 16, STRESS PERIOD  4 READ UNFORMATTED ON UNIT 10
                    --------------------------------------------------------------------------------------------


 TOTAL NUMBER OF POINT SOURCES/SINKS PRESENT IN THE FLOW MODEL =    41

 MAXIMUM STEPSIZE WHICH MEETS STABILITY CRITERION OF THE SINK & SOURCE TERM
 =  128.6    (WHEN MIN. R.F.=1)  AT K=   1, I=   5, J=   5

 MAXIMUM STEPSIZE WHICH MEETS STABILITY CRITERION OF THE DISPERSION TERM
 =  383.7    (WHEN MIN. R.F.=1)  AT K=   1, I=   5, J=   5


     1 CALLS TO GCG PACKAGE FOR TRANSPORT TIME STEP   1 IN FLOW TIME STEP  16 STRESS PERIOD   4
     2 TOTAL ITERATIONS
  MAXIMUM CONCENTRATION CHANGES FOR EACH ITERATION:
  MAX. CHANGE LAYER,ROW,COL MAX. CHANGE LAYER,ROW,COL MAX. CHANGE LAYER,ROW,COL MAX. CHANGE LAYER,ROW,COL MAX. CHANGE LAYER,ROW,COL
 ------------------------------------------------------------------------------------------------------------------------------------
   0.1637E-02 (  1,  5,  5)  0.1421E-13 (  2,  3,  7)


                                          ================================================
                                                         TIME STEP NO.  017
                                          ================================================

 FROM TIME =   217.00     TO    218.00    


                    "THKSAT          " FLOW TERMS FOR TIME STEP 17, STRESS PERIOD  4 READ UNFORMATTED ON UNIT 10
                    --------------------------------------------------------------------------------------------

                    "QXX             " FLOW TERMS FOR TIME STEP 17, STRESS PERIOD  4 READ UNFORMATTED ON UNIT 10
                    --------------------------------------------------------------------------------------------

                    "QYY             " FLOW TERMS FOR TIME STEP 17, STRESS PERIOD  4 READ UNFORMATTED ON UNIT 10
                    --------------------------------------------------------------------------------------------

                    "QZZ             " FLOW TERMS FOR TIME STEP 17, STRESS PERIOD  4 READ UNFORMATTED ON UNIT 10
                    --------------------------------------------------------------------------------------------

                    "STO             " FLOW TERMS FOR TIME STEP 17, STRESS PERIOD  4 READ UNFORMATTED ON UNIT 10
                    --------------------------------------------------------------------------------------------

 MAXIMUM STEPSIZE DURING WHICH ANY PARTICLE CANNOT MOVE MORE THAN ONE CELL
 =  601.8    (WHEN MIN. R.F.=1)  AT K=   2, I=   5, J=   5

 MAXIMUM STEPSIZE WHICH MEETS STABILITY CRITERION OF THE ADVECTION TERM
 (FOR PURE FINITE-DIFFERENCE OPTION, MIXELM=0) 
 =  190.4    (WHEN MIN. R.F.=1)  AT K=   2, I=   5, J=   5

                    "CNH             " FLOW TERMS FOR TIME STEP 17, STRESS PERIOD  4 READ UNFORMATTED ON UNIT 10
                    --------------------------------------------------------------------------------------------

                    "WEL             " FLOW TERMS FOR TIME STEP 17, STRESS PERIOD  4 READ UNFORMATTED ON UNIT 10
                    --------------------------------------------------------------------------------------------

                    "GHB             " FLOW TERMS FOR TIME STEP 17, STRESS PERIOD  4 READ UNFORMATTED ON UNIT 10
                    --------------------------------------------------------------------------------------------


 TOTAL NUMBER OF POINT SOURCES/SINKS PRESENT IN THE FLOW MODEL =    41

 MAXIMUM STEPSIZE WHICH MEETS STABILITY CRITERION OF THE SINK & SOURCE TERM
 =  128.6    (WHEN MIN. R.F.=1)  AT K=   1, I=   5, J=   5

 MAXIMUM STEPSIZE WHICH MEETS STABILITY CRITERION OF THE DISPERSION TERM
 =  383.7    (WHEN MIN. R.F.=1)  AT K=   1, I=   5, J=   5


     1 CALLS TO GCG PACKAGE FOR TRANSPORT TIME STEP   1 IN FLOW TIME STEP  17 STRESS PERIOD   4
     2 TOTAL ITERATIONS
  MAXIMUM CONCENTRATION CHANGES FOR EACH ITERATION:
  MAX. CHANGE LAYER,ROW,COL MAX. CHANGE LAYER,ROW,COL MAX. CHANGE LAYER,ROW,COL MAX. CHANGE LAYER,ROW,COL MAX. CHANGE LAYER,ROW,COL
 ------------------------------------------------------------------------------------------------------------------------------------
   0.1620E-02 (  1,  5,  5)  0.1421E-13 (  2,  3,  7)


                                          ================================================
                                                         TIME STEP NO.  018
                                          ================================================

 FROM TIME =   218.00     TO    219.00    


                    "THKSAT          " FLOW TERMS FOR TIME STEP 18, STRESS PERIOD  4 READ UNFORMATTED ON UNIT 10
                    --------------------------------------------------------------------------------------------

                    "QXX             " FLOW TERMS FOR TIME STEP 18, STRESS PERIOD  4 READ UNFORMATTED ON UNIT 10
                    --------------------------------------------------------------------------------------------

                    "QYY             " FLOW TERMS FOR TIME STEP 18, STRESS PERIOD  4 READ UNFORMATTED ON UNIT 10
                    --------------------------------------------------------------------------------------------

                    "QZZ             " FLOW TERMS FOR TIME STEP 18, STRESS PERIOD  4 READ UNFORMATTED ON UNIT 10
                    --------------------------------------------------------------------------------------------

                    "STO             " FLOW TERMS FOR TIME STEP 18, STRESS PERIOD  4 READ UNFORMATTED ON UNIT 10
                    --------------------------------------------------------------------------------------------

 MAXIMUM STEPSIZE DURING WHICH ANY PARTICLE CANNOT MOVE MORE THAN ONE CELL
 =  601.8    (WHEN MIN. R.F.=1)  AT K=   2, I=   5, J=   5

 MAXIMUM STEPSIZE WHICH MEETS STABILITY CRITERION OF THE ADVECTION TERM
 (FOR PURE FINITE-DIFFERENCE OPTION, MIXELM=0) 
 =  190.3    (WHEN MIN. R.F.=1)  AT K=   2, I=   5, J=   5

                    "CNH             " FLOW TERMS FOR TIME STEP 18, STRESS PERIOD  4 READ UNFORMATTED ON UNIT 10
                    --------------------------------------------------------------------------------------------

                    "WEL             " FLOW TERMS FOR TIME STEP 18, STRESS PERIOD  4 READ UNFORMATTED ON UNIT 10
                    --------------------------------------------------------------------------------------------

                    "GHB             " FLOW TERMS FOR TIME STEP 18, STRESS PERIOD  4 READ UNFORMATTED ON UNIT 10
                    --------------------------------------------------------------------------------------------


 TOTAL NUMBER OF POINT SOURCES/SINKS PRESENT IN THE FLOW MODEL =    41

 MAXIMUM STEPSIZE WHICH MEETS STABILITY CRITERION OF THE SINK & SOURCE TERM
 =  128.6    (WHEN MIN. R.F.=1)  AT K=   1, I=   5, J=   5

 MAXIMUM STEPSIZE WHICH MEETS STABILITY CRITERION OF THE DISPERSION TERM
 =  383.7    (WHEN MIN. R.F.=1)  AT K=   1, I=   5, J=   5


     1 CALLS TO GCG PACKAGE FOR TRANSPORT TIME STEP   1 IN FLOW TIME STEP  18 STRESS PERIOD   4
     2 TOTAL ITERATIONS
  MAXIMUM CONCENTRATION CHANGES FOR EACH ITERATION:
  MAX. CHANGE LAYER,ROW,COL MAX. CHANGE LAYER,ROW,COL MAX. CHANGE LAYER,ROW,COL MAX. CHANGE LAYER,ROW,COL MAX. CHANGE LAYER,ROW,COL
 ------------------------------------------------------------------------------------------------------------------------------------
   0.1603E-02 (  1,  5,  5)  0.1421E-13 (  2,  3,  7)


                                          ================================================
                                                         TIME STEP NO.  019
                                          ================================================

 FROM TIME =   219.00     TO    220.00    


                    "THKSAT          " FLOW TERMS FOR TIME STEP 19, STRESS PERIOD  4 READ UNFORMATTED ON UNIT 10
                    --------------------------------------------------------------------------------------------

                    "QXX             " FLOW TERMS FOR TIME STEP 19, STRESS PERIOD  4 READ UNFORMATTED ON UNIT 10
                    --------------------------------------------------------------------------------------------

                    "QYY             " FLOW TERMS FOR TIME STEP 19, STRESS PERIOD  4 READ UNFORMATTED ON UNIT 10
                    --------------------------------------------------------------------------------------------

                    "QZZ             " FLOW TERMS FOR TIME STEP 19, STRESS PERIOD  4 READ UNFORMATTED ON UNIT 10
                    --------------------------------------------------------------------------------------------

                    "STO             " FLOW TERMS FOR TIME STEP 19, STRESS PERIOD  4 READ UNFORMATTED ON UNIT 10
                    --------------------------------------------------------------------------------------------

 MAXIMUM STEPSIZE DURING WHICH ANY PARTICLE CANNOT MOVE MORE THAN ONE CELL
 =  601.8    (WHEN MIN. R.F.=1)  AT K=   2, I=   5, J=   5

 MAXIMUM STEPSIZE WHICH MEETS STABILITY CRITERION OF THE ADVECTION TERM
 (FOR PURE FINITE-DIFFERENCE OPTION, MIXELM=0) 
 =  190.3    (WHEN MIN. R.F.=1)  AT K=   2, I=   5, J=   5

                    "CNH             " FLOW TERMS FOR TIME STEP 19, STRESS PERIOD  4 READ UNFORMATTED ON UNIT 10
                    --------------------------------------------------------------------------------------------

                    "WEL             " FLOW TERMS FOR TIME STEP 19, STRESS PERIOD  4 READ UNFORMATTED ON UNIT 10
                    --------------------------------------------------------------------------------------------

                    "GHB             " FLOW TERMS FOR TIME STEP 19, STRESS PERIOD  4 READ UNFORMATTED ON UNIT 10
                    --------------------------------------------------------------------------------------------


 TOTAL NUMBER OF POINT SOURCES/SINKS PRESENT IN THE FLOW MODEL =    41

 MAXIMUM STEPSIZE WHICH MEETS STABILITY CRITERION OF THE SINK & SOURCE TERM
 =  128.6    (WHEN MIN. R.F.=1)  AT K=   1, I=   5, J=   5

 MAXIMUM STEPSIZE WHICH MEETS STABILITY CRITERION OF THE DISPERSION TERM
 =  383.8    (WHEN MIN. R.F.=1)  AT K=   1, I=   5, J=   5


     1 CALLS TO GCG PACKAGE FOR TRANSPORT TIME STEP   1 IN FLOW TIME STEP  19 STRESS PERIOD   4
     2 TOTAL ITERATIONS
  MAXIMUM CONCENTRATION CHANGES FOR EACH ITERATION:
  MAX. CHANGE LAYER,ROW,COL MAX. CHANGE LAYER,ROW,COL MAX. CHANGE LAYER,ROW,COL MAX. CHANGE LAYER,ROW,COL MAX. CHANGE LAYER,ROW,COL
 ------------------------------------------------------------------------------------------------------------------------------------
   0.1586E-02 (  1,  5,  5)  0.1421E-13 (  2,  3,  7)


                                          ================================================
                                                         TIME STEP NO.  020
                                          ================================================

 FROM TIME =   220.00     TO    221.00    


                    "THKSAT          " FLOW TERMS FOR TIME STEP 20, STRESS PERIOD  4 READ UNFORMATTED ON UNIT 10
                    --------------------------------------------------------------------------------------------

                    "QXX             " FLOW TERMS FOR TIME STEP 20, STRESS PERIOD  4 READ UNFORMATTED ON UNIT 10
                    --------------------------------------------------------------------------------------------

                    "QYY             " FLOW TERMS FOR TIME STEP 20, STRESS PERIOD  4 READ UNFORMATTED ON UNIT 10
                    --------------------------------------------------------------------------------------------

                    "QZZ             " FLOW TERMS FOR TIME STEP 20, STRESS PERIOD  4 READ UNFORMATTED ON UNIT 10
                    --------------------------------------------------------------------------------------------

                    "STO             " FLOW TERMS FOR TIME STEP 20, STRESS PERIOD  4 READ UNFORMATTED ON UNIT 10
                    --------------------------------------------------------------------------------------------

 MAXIMUM STEPSIZE DURING WHICH ANY PARTICLE CANNOT MOVE MORE THAN ONE CELL
 =  601.8    (WHEN MIN. R.F.=1)  AT K=   2, I=   5, J=   5

 MAXIMUM STEPSIZE WHICH MEETS STABILITY CRITERION OF THE ADVECTION TERM
 (FOR PURE FINITE-DIFFERENCE OPTION, MIXELM=0) 
 =  190.2    (WHEN MIN. R.F.=1)  AT K=   2, I=   5, J=   5

                    "CNH             " FLOW TERMS FOR TIME STEP 20, STRESS PERIOD  4 READ UNFORMATTED ON UNIT 10
                    --------------------------------------------------------------------------------------------

                    "WEL             " FLOW TERMS FOR TIME STEP 20, STRESS PERIOD  4 READ UNFORMATTED ON UNIT 10
                    --------------------------------------------------------------------------------------------

                    "GHB             " FLOW TERMS FOR TIME STEP 20, STRESS PERIOD  4 READ UNFORMATTED ON UNIT 10
                    --------------------------------------------------------------------------------------------


 TOTAL NUMBER OF POINT SOURCES/SINKS PRESENT IN THE FLOW MODEL =    41

 MAXIMUM STEPSIZE WHICH MEETS STABILITY CRITERION OF THE SINK & SOURCE TERM
 =  128.6    (WHEN MIN. R.F.=1)  AT K=   1, I=   5, J=   5

 MAXIMUM STEPSIZE WHICH MEETS STABILITY CRITERION OF THE DISPERSION TERM
 =  383.8    (WHEN MIN. R.F.=1)  AT K=   1, I=   5, J=   5


     1 CALLS TO GCG PACKAGE FOR TRANSPORT TIME STEP   1 IN FLOW TIME STEP  20 STRESS PERIOD   4
     2 TOTAL ITERATIONS
  MAXIMUM CONCENTRATION CHANGES FOR EACH ITERATION:
  MAX. CHANGE LAYER,ROW,COL MAX. CHANGE LAYER,ROW,COL MAX. CHANGE LAYER,ROW,COL MAX. CHANGE LAYER,ROW,COL MAX. CHANGE LAYER,ROW,COL
 ------------------------------------------------------------------------------------------------------------------------------------
   0.1569E-02 (  1,  5,  5)  0.1421E-13 (  2,  3,  7)


                                          ================================================
                                                         TIME STEP NO.  021
                                          ================================================

 FROM TIME =   221.00     TO    222.00    


                    "THKSAT          " FLOW TERMS FOR TIME STEP 21, STRESS PERIOD  4 READ UNFORMATTED ON UNIT 10
                    --------------------------------------------------------------------------------------------

                    "QXX             " FLOW TERMS FOR TIME STEP 21, STRESS PERIOD  4 READ UNFORMATTED ON UNIT 10
                    --------------------------------------------------------------------------------------------

                    "QYY             " FLOW TERMS FOR TIME STEP 21, STRESS PERIOD  4 READ UNFORMATTED ON UNIT 10
                    --------------------------------------------------------------------------------------------

                    "QZZ             " FLOW TERMS FOR TIME STEP 21, STRESS PERIOD  4 READ UNFORMATTED ON UNIT 10
                    --------------------------------------------------------------------------------------------

                    "STO             " FLOW TERMS FOR TIME STEP 21, STRESS PERIOD  4 READ UNFORMATTED ON UNIT 10
                    --------------------------------------------------------------------------------------------

 MAXIMUM STEPSIZE DURING WHICH ANY PARTICLE CANNOT MOVE MORE THAN ONE CELL
 =  601.8    (WHEN MIN. R.F.=1)  AT K=   2, I=   5, J=   5

 MAXIMUM STEPSIZE WHICH MEETS STABILITY CRITERION OF THE ADVECTION TERM
 (FOR PURE FINITE-DIFFERENCE OPTION, MIXELM=0) 
 =  190.2    (WHEN MIN. R.F.=1)  AT K=   2, I=   5, J=   5

                    "CNH             " FLOW TERMS FOR TIME STEP 21, STRESS PERIOD  4 READ UNFORMATTED ON UNIT 10
                    --------------------------------------------------------------------------------------------

                    "WEL             " FLOW TERMS FOR TIME STEP 21, STRESS PERIOD  4 READ UNFORMATTED ON UNIT 10
                    --------------------------------------------------------------------------------------------

                    "GHB             " FLOW TERMS FOR TIME STEP 21, STRESS PERIOD  4 READ UNFORMATTED ON UNIT 10
                    --------------------------------------------------------------------------------------------


 TOTAL NUMBER OF POINT SOURCES/SINKS PRESENT IN THE FLOW MODEL =    41

 MAXIMUM STEPSIZE WHICH MEETS STABILITY CRITERION OF THE SINK & SOURCE TERM
 =  128.6    (WHEN MIN. R.F.=1)  AT K=   1, I=   5, J=   5

 MAXIMUM STEPSIZE WHICH MEETS STABILITY CRITERION OF THE DISPERSION TERM
 =  383.8    (WHEN MIN. R.F.=1)  AT K=   1, I=   5, J=   5


     1 CALLS TO GCG PACKAGE FOR TRANSPORT TIME STEP   1 IN FLOW TIME STEP  21 STRESS PERIOD   4
     2 TOTAL ITERATIONS
  MAXIMUM CONCENTRATION CHANGES FOR EACH ITERATION:
  MAX. CHANGE LAYER,ROW,COL MAX. CHANGE LAYER,ROW,COL MAX. CHANGE LAYER,ROW,COL MAX. CHANGE LAYER,ROW,COL MAX. CHANGE LAYER,ROW,COL
 ------------------------------------------------------------------------------------------------------------------------------------
   0.1655E-02 (  1,  5,  5)  0.1421E-13 (  2,  3,  7)


                                          ================================================
                                                         TIME STEP NO.  022
                                          ================================================

 FROM TIME =   222.00     TO    223.00    


                    "THKSAT          " FLOW TERMS FOR TIME STEP 22, STRESS PERIOD  4 READ UNFORMATTED ON UNIT 10
                    --------------------------------------------------------------------------------------------

                    "QXX             " FLOW TERMS FOR TIME STEP 22, STRESS PERIOD  4 READ UNFORMATTED ON UNIT 10
                    --------------------------------------------------------------------------------------------

                    "QYY             " FLOW TERMS FOR TIME STEP 22, STRESS PERIOD  4 READ UNFORMATTED ON UNIT 10
                    --------------------------------------------------------------------------------------------

                    "QZZ             " FLOW TERMS FOR TIME STEP 22, STRESS PERIOD  4 READ UNFORMATTED ON UNIT 10
                    --------------------------------------------------------------------------------------------

                    "STO             " FLOW TERMS FOR TIME STEP 22, STRESS PERIOD  4 READ UNFORMATTED ON UNIT 10
                    --------------------------------------------------------------------------------------------

 MAXIMUM STEPSIZE DURING WHICH ANY PARTICLE CANNOT MOVE MORE THAN ONE CELL
 =  601.7    (WHEN MIN. R.F.=1)  AT K=   2, I=   5, J=   5

 MAXIMUM STEPSIZE WHICH MEETS STABILITY CRITERION OF THE ADVECTION TERM
 (FOR PURE FINITE-DIFFERENCE OPTION, MIXELM=0) 
 =  190.2    (WHEN MIN. R.F.=1)  AT K=   2, I=   5, J=   5

                    "CNH             " FLOW TERMS FOR TIME STEP 22, STRESS PERIOD  4 READ UNFORMATTED ON UNIT 10
                    --------------------------------------------------------------------------------------------

                    "WEL             " FLOW TERMS FOR TIME STEP 22, STRESS PERIOD  4 READ UNFORMATTED ON UNIT 10
                    --------------------------------------------------------------------------------------------

                    "GHB             " FLOW TERMS FOR TIME STEP 22, STRESS PERIOD  4 READ UNFORMATTED ON UNIT 10
                    --------------------------------------------------------------------------------------------


 TOTAL NUMBER OF POINT SOURCES/SINKS PRESENT IN THE FLOW MODEL =    41

 MAXIMUM STEPSIZE WHICH MEETS STABILITY CRITERION OF THE SINK & SOURCE TERM
 =  128.6    (WHEN MIN. R.F.=1)  AT K=   1, I=   5, J=   5

 MAXIMUM STEPSIZE WHICH MEETS STABILITY CRITERION OF THE DISPERSION TERM
 =  383.9    (WHEN MIN. R.F.=1)  AT K=   1, I=   5, J=   5


     1 CALLS TO GCG PACKAGE FOR TRANSPORT TIME STEP   1 IN FLOW TIME STEP  22 STRESS PERIOD   4
     2 TOTAL ITERATIONS
  MAXIMUM CONCENTRATION CHANGES FOR EACH ITERATION:
  MAX. CHANGE LAYER,ROW,COL MAX. CHANGE LAYER,ROW,COL MAX. CHANGE LAYER,ROW,COL MAX. CHANGE LAYER,ROW,COL MAX. CHANGE LAYER,ROW,COL
 ------------------------------------------------------------------------------------------------------------------------------------
   0.1637E-02 (  1,  5,  5)  0.1421E-13 (  2,  3,  7)


                                          ================================================
                                                         TIME STEP NO.  023
                                          ================================================

 FROM TIME =   223.00     TO    224.00    


                    "THKSAT          " FLOW TERMS FOR TIME STEP 23, STRESS PERIOD  4 READ UNFORMATTED ON UNIT 10
                    --------------------------------------------------------------------------------------------

                    "QXX             " FLOW TERMS FOR TIME STEP 23, STRESS PERIOD  4 READ UNFORMATTED ON UNIT 10
                    --------------------------------------------------------------------------------------------

                    "QYY             " FLOW TERMS FOR TIME STEP 23, STRESS PERIOD  4 READ UNFORMATTED ON UNIT 10
                    --------------------------------------------------------------------------------------------

                    "QZZ             " FLOW TERMS FOR TIME STEP 23, STRESS PERIOD  4 READ UNFORMATTED ON UNIT 10
                    --------------------------------------------------------------------------------------------

                    "STO             " FLOW TERMS FOR TIME STEP 23, STRESS PERIOD  4 READ UNFORMATTED ON UNIT 10
                    --------------------------------------------------------------------------------------------

 MAXIMUM STEPSIZE DURING WHICH ANY PARTICLE CANNOT MOVE MORE THAN ONE CELL
 =  601.7    (WHEN MIN. R.F.=1)  AT K=   2, I=   5, J=   5

 MAXIMUM STEPSIZE WHICH MEETS STABILITY CRITERION OF THE ADVECTION TERM
 (FOR PURE FINITE-DIFFERENCE OPTION, MIXELM=0) 
 =  190.1    (WHEN MIN. R.F.=1)  AT K=   2, I=   5, J=   5

                    "CNH             " FLOW TERMS FOR TIME STEP 23, STRESS PERIOD  4 READ UNFORMATTED ON UNIT 10
                    --------------------------------------------------------------------------------------------

                    "WEL             " FLOW TERMS FOR TIME STEP 23, STRESS PERIOD  4 READ UNFORMATTED ON UNIT 10
                    --------------------------------------------------------------------------------------------

                    "GHB             " FLOW TERMS FOR TIME STEP 23, STRESS PERIOD  4 READ UNFORMATTED ON UNIT 10
                    --------------------------------------------------------------------------------------------


 TOTAL NUMBER OF POINT SOURCES/SINKS PRESENT IN THE FLOW MODEL =    41

 MAXIMUM STEPSIZE WHICH MEETS STABILITY CRITERION OF THE SINK & SOURCE TERM
 =  128.6    (WHEN MIN. R.F.=1)  AT K=   1, I=   5, J=   5

 MAXIMUM STEPSIZE WHICH MEETS STABILITY CRITERION OF THE DISPERSION TERM
 =  383.9    (WHEN MIN. R.F.=1)  AT K=   1, I=   5, J=   5


     1 CALLS TO GCG PACKAGE FOR TRANSPORT TIME STEP   1 IN FLOW TIME STEP  23 STRESS PERIOD   4
     2 TOTAL ITERATIONS
  MAXIMUM CONCENTRATION CHANGES FOR EACH ITERATION:
  MAX. CHANGE LAYER,ROW,COL MAX. CHANGE LAYER,ROW,COL MAX. CHANGE LAYER,ROW,COL MAX. CHANGE LAYER,ROW,COL MAX. CHANGE LAYER,ROW,COL
 ------------------------------------------------------------------------------------------------------------------------------------
   0.1620E-02 (  1,  5,  5)  0.1421E-13 (  2,  3,  7)


                                          ================================================
                                                         TIME STEP NO.  024
                                          ================================================

 FROM TIME =   224.00     TO    225.00    


                    "THKSAT          " FLOW TERMS FOR TIME STEP 24, STRESS PERIOD  4 READ UNFORMATTED ON UNIT 10
                    --------------------------------------------------------------------------------------------

                    "QXX             " FLOW TERMS FOR TIME STEP 24, STRESS PERIOD  4 READ UNFORMATTED ON UNIT 10
                    --------------------------------------------------------------------------------------------

                    "QYY             " FLOW TERMS FOR TIME STEP 24, STRESS PERIOD  4 READ UNFORMATTED ON UNIT 10
                    --------------------------------------------------------------------------------------------

                    "QZZ             " FLOW TERMS FOR TIME STEP 24, STRESS PERIOD  4 READ UNFORMATTED ON UNIT 10
                    --------------------------------------------------------------------------------------------

                    "STO             " FLOW TERMS FOR TIME STEP 24, STRESS PERIOD  4 READ UNFORMATTED ON UNIT 10
                    --------------------------------------------------------------------------------------------

 MAXIMUM STEPSIZE DURING WHICH ANY PARTICLE CANNOT MOVE MORE THAN ONE CELL
 =  601.7    (WHEN MIN. R.F.=1)  AT K=   2, I=   5, J=   5

 MAXIMUM STEPSIZE WHICH MEETS STABILITY CRITERION OF THE ADVECTION TERM
 (FOR PURE FINITE-DIFFERENCE OPTION, MIXELM=0) 
 =  190.1    (WHEN MIN. R.F.=1)  AT K=   2, I=   5, J=   5

                    "CNH             " FLOW TERMS FOR TIME STEP 24, STRESS PERIOD  4 READ UNFORMATTED ON UNIT 10
                    --------------------------------------------------------------------------------------------

                    "WEL             " FLOW TERMS FOR TIME STEP 24, STRESS PERIOD  4 READ UNFORMATTED ON UNIT 10
                    --------------------------------------------------------------------------------------------

                    "GHB             " FLOW TERMS FOR TIME STEP 24, STRESS PERIOD  4 READ UNFORMATTED ON UNIT 10
                    --------------------------------------------------------------------------------------------


 TOTAL NUMBER OF POINT SOURCES/SINKS PRESENT IN THE FLOW MODEL =    41

 MAXIMUM STEPSIZE WHICH MEETS STABILITY CRITERION OF THE SINK & SOURCE TERM
 =  128.6    (WHEN MIN. R.F.=1)  AT K=   1, I=   5, J=   5

 MAXIMUM STEPSIZE WHICH MEETS STABILITY CRITERION OF THE DISPERSION TERM
 =  383.9    (WHEN MIN. R.F.=1)  AT K=   1, I=   5, J=   5


     1 CALLS TO GCG PACKAGE FOR TRANSPORT TIME STEP   1 IN FLOW TIME STEP  24 STRESS PERIOD   4
     2 TOTAL ITERATIONS
  MAXIMUM CONCENTRATION CHANGES FOR EACH ITERATION:
  MAX. CHANGE LAYER,ROW,COL MAX. CHANGE LAYER,ROW,COL MAX. CHANGE LAYER,ROW,COL MAX. CHANGE LAYER,ROW,COL MAX. CHANGE LAYER,ROW,COL
 ------------------------------------------------------------------------------------------------------------------------------------
   0.1602E-02 (  1,  5,  5)  0.1421E-13 (  2,  3,  7)


                                          ================================================
                                                         TIME STEP NO.  025
                                          ================================================

 FROM TIME =   225.00     TO    226.00    


                    "THKSAT          " FLOW TERMS FOR TIME STEP 25, STRESS PERIOD  4 READ UNFORMATTED ON UNIT 10
                    --------------------------------------------------------------------------------------------

                    "QXX             " FLOW TERMS FOR TIME STEP 25, STRESS PERIOD  4 READ UNFORMATTED ON UNIT 10
                    --------------------------------------------------------------------------------------------

                    "QYY             " FLOW TERMS FOR TIME STEP 25, STRESS PERIOD  4 READ UNFORMATTED ON UNIT 10
                    --------------------------------------------------------------------------------------------

                    "QZZ             " FLOW TERMS FOR TIME STEP 25, STRESS PERIOD  4 READ UNFORMATTED ON UNIT 10
                    --------------------------------------------------------------------------------------------

                    "STO             " FLOW TERMS FOR TIME STEP 25, STRESS PERIOD  4 READ UNFORMATTED ON UNIT 10
                    --------------------------------------------------------------------------------------------

 MAXIMUM STEPSIZE DURING WHICH ANY PARTICLE CANNOT MOVE MORE THAN ONE CELL
 =  601.7    (WHEN MIN. R.F.=1)  AT K=   2, I=   5, J=   5

 MAXIMUM STEPSIZE WHICH MEETS STABILITY CRITERION OF THE ADVECTION TERM
 (FOR PURE FINITE-DIFFERENCE OPTION, MIXELM=0) 
 =  190.0    (WHEN MIN. R.F.=1)  AT K=   2, I=   5, J=   5

                    "CNH             " FLOW TERMS FOR TIME STEP 25, STRESS PERIOD  4 READ UNFORMATTED ON UNIT 10
                    --------------------------------------------------------------------------------------------

                    "WEL             " FLOW TERMS FOR TIME STEP 25, STRESS PERIOD  4 READ UNFORMATTED ON UNIT 10
                    --------------------------------------------------------------------------------------------

                    "GHB             " FLOW TERMS FOR TIME STEP 25, STRESS PERIOD  4 READ UNFORMATTED ON UNIT 10
                    --------------------------------------------------------------------------------------------


 TOTAL NUMBER OF POINT SOURCES/SINKS PRESENT IN THE FLOW MODEL =    41

 MAXIMUM STEPSIZE WHICH MEETS STABILITY CRITERION OF THE SINK & SOURCE TERM
 =  128.6    (WHEN MIN. R.F.=1)  AT K=   1, I=   5, J=   5

 MAXIMUM STEPSIZE WHICH MEETS STABILITY CRITERION OF THE DISPERSION TERM
 =  384.0    (WHEN MIN. R.F.=1)  AT K=   1, I=   5, J=   5


     1 CALLS TO GCG PACKAGE FOR TRANSPORT TIME STEP   1 IN FLOW TIME STEP  25 STRESS PERIOD   4
     2 TOTAL ITERATIONS
  MAXIMUM CONCENTRATION CHANGES FOR EACH ITERATION:
  MAX. CHANGE LAYER,ROW,COL MAX. CHANGE LAYER,ROW,COL MAX. CHANGE LAYER,ROW,COL MAX. CHANGE LAYER,ROW,COL MAX. CHANGE LAYER,ROW,COL
 ------------------------------------------------------------------------------------------------------------------------------------
   0.1585E-02 (  1,  5,  5)  0.1421E-13 (  2,  3,  7)


                                          ================================================
                                                         TIME STEP NO.  026
                                          ================================================

 FROM TIME =   226.00     TO    227.00    


                    "THKSAT          " FLOW TERMS FOR TIME STEP 26, STRESS PERIOD  4 READ UNFORMATTED ON UNIT 10
                    --------------------------------------------------------------------------------------------

                    "QXX             " FLOW TERMS FOR TIME STEP 26, STRESS PERIOD  4 READ UNFORMATTED ON UNIT 10
                    --------------------------------------------------------------------------------------------

                    "QYY             " FLOW TERMS FOR TIME STEP 26, STRESS PERIOD  4 READ UNFORMATTED ON UNIT 10
                    --------------------------------------------------------------------------------------------

                    "QZZ             " FLOW TERMS FOR TIME STEP 26, STRESS PERIOD  4 READ UNFORMATTED ON UNIT 10
                    --------------------------------------------------------------------------------------------

                    "STO             " FLOW TERMS FOR TIME STEP 26, STRESS PERIOD  4 READ UNFORMATTED ON UNIT 10
                    --------------------------------------------------------------------------------------------

 MAXIMUM STEPSIZE DURING WHICH ANY PARTICLE CANNOT MOVE MORE THAN ONE CELL
 =  601.7    (WHEN MIN. R.F.=1)  AT K=   2, I=   5, J=   5

 MAXIMUM STEPSIZE WHICH MEETS STABILITY CRITERION OF THE ADVECTION TERM
 (FOR PURE FINITE-DIFFERENCE OPTION, MIXELM=0) 
 =  190.0    (WHEN MIN. R.F.=1)  AT K=   2, I=   5, J=   5

                    "CNH             " FLOW TERMS FOR TIME STEP 26, STRESS PERIOD  4 READ UNFORMATTED ON UNIT 10
                    --------------------------------------------------------------------------------------------

                    "WEL             " FLOW TERMS FOR TIME STEP 26, STRESS PERIOD  4 READ UNFORMATTED ON UNIT 10
                    --------------------------------------------------------------------------------------------

                    "GHB             " FLOW TERMS FOR TIME STEP 26, STRESS PERIOD  4 READ UNFORMATTED ON UNIT 10
                    --------------------------------------------------------------------------------------------


 TOTAL NUMBER OF POINT SOURCES/SINKS PRESENT IN THE FLOW MODEL =    41

 MAXIMUM STEPSIZE WHICH MEETS STABILITY CRITERION OF THE SINK & SOURCE TERM
 =  128.6    (WHEN MIN. R.F.=1)  AT K=   1, I=   5, J=   5

 MAXIMUM STEPSIZE WHICH MEETS STABILITY CRITERION OF THE DISPERSION TERM
 =  384.0    (WHEN MIN. R.F.=1)  AT K=   1, I=   5, J=   5


     1 CALLS TO GCG PACKAGE FOR TRANSPORT TIME STEP   1 IN FLOW TIME STEP  26 STRESS PERIOD   4
     2 TOTAL ITERATIONS
  MAXIMUM CONCENTRATION CHANGES FOR EACH ITERATION:
  MAX. CHANGE LAYER,ROW,COL MAX. CHANGE LAYER,ROW,COL MAX. CHANGE LAYER,ROW,COL MAX. CHANGE LAYER,ROW,COL MAX. CHANGE LAYER,ROW,COL
 ------------------------------------------------------------------------------------------------------------------------------------
   0.1569E-02 (  1,  5,  5)  0.1421E-13 (  2,  3,  7)


                                          ================================================
                                                         TIME STEP NO.  027
                                          ================================================

 FROM TIME =   227.00     TO    228.00    


                    "THKSAT          " FLOW TERMS FOR TIME STEP 27, STRESS PERIOD  4 READ UNFORMATTED ON UNIT 10
                    --------------------------------------------------------------------------------------------

                    "QXX             " FLOW TERMS FOR TIME STEP 27, STRESS PERIOD  4 READ UNFORMATTED ON UNIT 10
                    --------------------------------------------------------------------------------------------

                    "QYY             " FLOW TERMS FOR TIME STEP 27, STRESS PERIOD  4 READ UNFORMATTED ON UNIT 10
                    --------------------------------------------------------------------------------------------

                    "QZZ             " FLOW TERMS FOR TIME STEP 27, STRESS PERIOD  4 READ UNFORMATTED ON UNIT 10
                    --------------------------------------------------------------------------------------------

                    "STO             " FLOW TERMS FOR TIME STEP 27, STRESS PERIOD  4 READ UNFORMATTED ON UNIT 10
                    --------------------------------------------------------------------------------------------

 MAXIMUM STEPSIZE DURING WHICH ANY PARTICLE CANNOT MOVE MORE THAN ONE CELL
 =  601.7    (WHEN MIN. R.F.=1)  AT K=   2, I=   5, J=   5

 MAXIMUM STEPSIZE WHICH MEETS STABILITY CRITERION OF THE ADVECTION TERM
 (FOR PURE FINITE-DIFFERENCE OPTION, MIXELM=0) 
 =  190.0    (WHEN MIN. R.F.=1)  AT K=   2, I=   5, J=   5

                    "CNH             " FLOW TERMS FOR TIME STEP 27, STRESS PERIOD  4 READ UNFORMATTED ON UNIT 10
                    --------------------------------------------------------------------------------------------

                    "WEL             " FLOW TERMS FOR TIME STEP 27, STRESS PERIOD  4 READ UNFORMATTED ON UNIT 10
                    --------------------------------------------------------------------------------------------

                    "GHB             " FLOW TERMS FOR TIME STEP 27, STRESS PERIOD  4 READ UNFORMATTED ON UNIT 10
                    --------------------------------------------------------------------------------------------


 TOTAL NUMBER OF POINT SOURCES/SINKS PRESENT IN THE FLOW MODEL =    41

 MAXIMUM STEPSIZE WHICH MEETS STABILITY CRITERION OF THE SINK & SOURCE TERM
 =  128.6    (WHEN MIN. R.F.=1)  AT K=   1, I=   5, J=   5

 MAXIMUM STEPSIZE WHICH MEETS STABILITY CRITERION OF THE DISPERSION TERM
 =  384.0    (WHEN MIN. R.F.=1)  AT K=   1, I=   5, J=   5


     1 CALLS TO GCG PACKAGE FOR TRANSPORT TIME STEP   1 IN FLOW TIME STEP  27 STRESS PERIOD   4
     2 TOTAL ITERATIONS
  MAXIMUM CONCENTRATION CHANGES FOR EACH ITERATION:
  MAX. CHANGE LAYER,ROW,COL MAX. CHANGE LAYER,ROW,COL MAX. CHANGE LAYER,ROW,COL MAX. CHANGE LAYER,ROW,COL MAX. CHANGE LAYER,ROW,COL
 ------------------------------------------------------------------------------------------------------------------------------------
   0.1552E-02 (  1,  5,  5)  0.1421E-13 (  2,  3,  7)


                                          ================================================
                                                         TIME STEP NO.  028
                                          ================================================

 FROM TIME =   228.00     TO    229.00    


                    "THKSAT          " FLOW TERMS FOR TIME STEP 28, STRESS PERIOD  4 READ UNFORMATTED ON UNIT 10
                    --------------------------------------------------------------------------------------------

                    "QXX             " FLOW TERMS FOR TIME STEP 28, STRESS PERIOD  4 READ UNFORMATTED ON UNIT 10
                    --------------------------------------------------------------------------------------------

                    "QYY             " FLOW TERMS FOR TIME STEP 28, STRESS PERIOD  4 READ UNFORMATTED ON UNIT 10
                    --------------------------------------------------------------------------------------------

                    "QZZ             " FLOW TERMS FOR TIME STEP 28, STRESS PERIOD  4 READ UNFORMATTED ON UNIT 10
                    --------------------------------------------------------------------------------------------

                    "STO             " FLOW TERMS FOR TIME STEP 28, STRESS PERIOD  4 READ UNFORMATTED ON UNIT 10
                    --------------------------------------------------------------------------------------------

 MAXIMUM STEPSIZE DURING WHICH ANY PARTICLE CANNOT MOVE MORE THAN ONE CELL
 =  601.7    (WHEN MIN. R.F.=1)  AT K=   2, I=   5, J=   5

 MAXIMUM STEPSIZE WHICH MEETS STABILITY CRITERION OF THE ADVECTION TERM
 (FOR PURE FINITE-DIFFERENCE OPTION, MIXELM=0) 
 =  189.9    (WHEN MIN. R.F.=1)  AT K=   2, I=   5, J=   5

                    "CNH             " FLOW TERMS FOR TIME STEP 28, STRESS PERIOD  4 READ UNFORMATTED ON UNIT 10
                    --------------------------------------------------------------------------------------------

                    "WEL             " FLOW TERMS FOR TIME STEP 28, STRESS PERIOD  4 READ UNFORMATTED ON UNIT 10
                    --------------------------------------------------------------------------------------------

                    "GHB             " FLOW TERMS FOR TIME STEP 28, STRESS PERIOD  4 READ UNFORMATTED ON UNIT 10
                    --------------------------------------------------------------------------------------------


 TOTAL NUMBER OF POINT SOURCES/SINKS PRESENT IN THE FLOW MODEL =    41

 MAXIMUM STEPSIZE WHICH MEETS STABILITY CRITERION OF THE SINK & SOURCE TERM
 =  128.6    (WHEN MIN. R.F.=1)  AT K=   1, I=   5, J=   5

 MAXIMUM STEPSIZE WHICH MEETS STABILITY CRITERION OF THE DISPERSION TERM
 =  384.0    (WHEN MIN. R.F.=1)  AT K=   1, I=   5, J=   5


     1 CALLS TO GCG PACKAGE FOR TRANSPORT TIME STEP   1 IN FLOW TIME STEP  28 STRESS PERIOD   4
     2 TOTAL ITERATIONS
  MAXIMUM CONCENTRATION CHANGES FOR EACH ITERATION:
  MAX. CHANGE LAYER,ROW,COL MAX. CHANGE LAYER,ROW,COL MAX. CHANGE LAYER,ROW,COL MAX. CHANGE LAYER,ROW,COL MAX. CHANGE LAYER,ROW,COL
 ------------------------------------------------------------------------------------------------------------------------------------
   0.1536E-02 (  1,  5,  5)  0.1421E-13 (  2,  3,  7)


                                          ================================================
                                                         TIME STEP NO.  029
                                          ================================================

 FROM TIME =   229.00     TO    230.00    


                    "THKSAT          " FLOW TERMS FOR TIME STEP 29, STRESS PERIOD  4 READ UNFORMATTED ON UNIT 10
                    --------------------------------------------------------------------------------------------

                    "QXX             " FLOW TERMS FOR TIME STEP 29, STRESS PERIOD  4 READ UNFORMATTED ON UNIT 10
                    --------------------------------------------------------------------------------------------

                    "QYY             " FLOW TERMS FOR TIME STEP 29, STRESS PERIOD  4 READ UNFORMATTED ON UNIT 10
                    --------------------------------------------------------------------------------------------

                    "QZZ             " FLOW TERMS FOR TIME STEP 29, STRESS PERIOD  4 READ UNFORMATTED ON UNIT 10
                    --------------------------------------------------------------------------------------------

                    "STO             " FLOW TERMS FOR TIME STEP 29, STRESS PERIOD  4 READ UNFORMATTED ON UNIT 10
                    --------------------------------------------------------------------------------------------

 MAXIMUM STEPSIZE DURING WHICH ANY PARTICLE CANNOT MOVE MORE THAN ONE CELL
 =  601.7    (WHEN MIN. R.F.=1)  AT K=   2, I=   5, J=   5

 MAXIMUM STEPSIZE WHICH MEETS STABILITY CRITERION OF THE ADVECTION TERM
 (FOR PURE FINITE-DIFFERENCE OPTION, MIXELM=0) 
 =  189.9    (WHEN MIN. R.F.=1)  AT K=   2, I=   5, J=   5

                    "CNH             " FLOW TERMS FOR TIME STEP 29, STRESS PERIOD  4 READ UNFORMATTED ON UNIT 10
                    --------------------------------------------------------------------------------------------

                    "WEL             " FLOW TERMS FOR TIME STEP 29, STRESS PERIOD  4 READ UNFORMATTED ON UNIT 10
                    --------------------------------------------------------------------------------------------

                    "GHB             " FLOW TERMS FOR TIME STEP 29, STRESS PERIOD  4 READ UNFORMATTED ON UNIT 10
                    --------------------------------------------------------------------------------------------


 TOTAL NUMBER OF POINT SOURCES/SINKS PRESENT IN THE FLOW MODEL =    41

 MAXIMUM STEPSIZE WHICH MEETS STABILITY CRITERION OF THE SINK & SOURCE TERM
 =  128.6    (WHEN MIN. R.F.=1)  AT K=   1, I=   5, J=   5

 MAXIMUM STEPSIZE WHICH MEETS STABILITY CRITERION OF THE DISPERSION TERM
 =  384.1    (WHEN MIN. R.F.=1)  AT K=   1, I=   5, J=   5


     1 CALLS TO GCG PACKAGE FOR TRANSPORT TIME STEP   1 IN FLOW TIME STEP  29 STRESS PERIOD   4
     2 TOTAL ITERATIONS
  MAXIMUM CONCENTRATION CHANGES FOR EACH ITERATION:
  MAX. CHANGE LAYER,ROW,COL MAX. CHANGE LAYER,ROW,COL MAX. CHANGE LAYER,ROW,COL MAX. CHANGE LAYER,ROW,COL MAX. CHANGE LAYER,ROW,COL
 ------------------------------------------------------------------------------------------------------------------------------------
   0.1520E-02 (  1,  5,  5)  0.1421E-13 (  2,  3,  7)


                                          ================================================
                                                         TIME STEP NO.  030
                                          ================================================

 FROM TIME =   230.00     TO    231.00    


                    "THKSAT          " FLOW TERMS FOR TIME STEP 30, STRESS PERIOD  4 READ UNFORMATTED ON UNIT 10
                    --------------------------------------------------------------------------------------------

                    "QXX             " FLOW TERMS FOR TIME STEP 30, STRESS PERIOD  4 READ UNFORMATTED ON UNIT 10
                    --------------------------------------------------------------------------------------------

                    "QYY             " FLOW TERMS FOR TIME STEP 30, STRESS PERIOD  4 READ UNFORMATTED ON UNIT 10
                    --------------------------------------------------------------------------------------------

                    "QZZ             " FLOW TERMS FOR TIME STEP 30, STRESS PERIOD  4 READ UNFORMATTED ON UNIT 10
                    --------------------------------------------------------------------------------------------

                    "STO             " FLOW TERMS FOR TIME STEP 30, STRESS PERIOD  4 READ UNFORMATTED ON UNIT 10
                    --------------------------------------------------------------------------------------------

 MAXIMUM STEPSIZE DURING WHICH ANY PARTICLE CANNOT MOVE MORE THAN ONE CELL
 =  601.6    (WHEN MIN. R.F.=1)  AT K=   2, I=   5, J=   5

 MAXIMUM STEPSIZE WHICH MEETS STABILITY CRITERION OF THE ADVECTION TERM
 (FOR PURE FINITE-DIFFERENCE OPTION, MIXELM=0) 
 =  189.9    (WHEN MIN. R.F.=1)  AT K=   2, I=   5, J=   5

                    "CNH             " FLOW TERMS FOR TIME STEP 30, STRESS PERIOD  4 READ UNFORMATTED ON UNIT 10
                    --------------------------------------------------------------------------------------------

                    "WEL             " FLOW TERMS FOR TIME STEP 30, STRESS PERIOD  4 READ UNFORMATTED ON UNIT 10
                    --------------------------------------------------------------------------------------------

                    "GHB             " FLOW TERMS FOR TIME STEP 30, STRESS PERIOD  4 READ UNFORMATTED ON UNIT 10
                    --------------------------------------------------------------------------------------------


 TOTAL NUMBER OF POINT SOURCES/SINKS PRESENT IN THE FLOW MODEL =    41

 MAXIMUM STEPSIZE WHICH MEETS STABILITY CRITERION OF THE SINK & SOURCE TERM
 =  128.6    (WHEN MIN. R.F.=1)  AT K=   1, I=   5, J=   5

 MAXIMUM STEPSIZE WHICH MEETS STABILITY CRITERION OF THE DISPERSION TERM
 =  384.1    (WHEN MIN. R.F.=1)  AT K=   1, I=   5, J=   5


     1 CALLS TO GCG PACKAGE FOR TRANSPORT TIME STEP   1 IN FLOW TIME STEP  30 STRESS PERIOD   4
     2 TOTAL ITERATIONS
  MAXIMUM CONCENTRATION CHANGES FOR EACH ITERATION:
  MAX. CHANGE LAYER,ROW,COL MAX. CHANGE LAYER,ROW,COL MAX. CHANGE LAYER,ROW,COL MAX. CHANGE LAYER,ROW,COL MAX. CHANGE LAYER,ROW,COL
 ------------------------------------------------------------------------------------------------------------------------------------
   0.1504E-02 (  1,  5,  5)  0.1421E-13 (  2,  3,  7)


                                          ================================================
                                                         TIME STEP NO.  031
                                          ================================================

 FROM TIME =   231.00     TO    232.00    


                    "THKSAT          " FLOW TERMS FOR TIME STEP 31, STRESS PERIOD  4 READ UNFORMATTED ON UNIT 10
                    --------------------------------------------------------------------------------------------

                    "QXX             " FLOW TERMS FOR TIME STEP 31, STRESS PERIOD  4 READ UNFORMATTED ON UNIT 10
                    --------------------------------------------------------------------------------------------

                    "QYY             " FLOW TERMS FOR TIME STEP 31, STRESS PERIOD  4 READ UNFORMATTED ON UNIT 10
                    --------------------------------------------------------------------------------------------

                    "QZZ             " FLOW TERMS FOR TIME STEP 31, STRESS PERIOD  4 READ UNFORMATTED ON UNIT 10
                    --------------------------------------------------------------------------------------------

                    "STO             " FLOW TERMS FOR TIME STEP 31, STRESS PERIOD  4 READ UNFORMATTED ON UNIT 10
                    --------------------------------------------------------------------------------------------

 MAXIMUM STEPSIZE DURING WHICH ANY PARTICLE CANNOT MOVE MORE THAN ONE CELL
 =  601.6    (WHEN MIN. R.F.=1)  AT K=   2, I=   5, J=   5

 MAXIMUM STEPSIZE WHICH MEETS STABILITY CRITERION OF THE ADVECTION TERM
 (FOR PURE FINITE-DIFFERENCE OPTION, MIXELM=0) 
 =  189.9    (WHEN MIN. R.F.=1)  AT K=   2, I=   5, J=   5

                    "CNH             " FLOW TERMS FOR TIME STEP 31, STRESS PERIOD  4 READ UNFORMATTED ON UNIT 10
                    --------------------------------------------------------------------------------------------

                    "WEL             " FLOW TERMS FOR TIME STEP 31, STRESS PERIOD  4 READ UNFORMATTED ON UNIT 10
                    --------------------------------------------------------------------------------------------

                    "GHB             " FLOW TERMS FOR TIME STEP 31, STRESS PERIOD  4 READ UNFORMATTED ON UNIT 10
                    --------------------------------------------------------------------------------------------


 TOTAL NUMBER OF POINT SOURCES/SINKS PRESENT IN THE FLOW MODEL =    41

 MAXIMUM STEPSIZE WHICH MEETS STABILITY CRITERION OF THE SINK & SOURCE TERM
 =  128.6    (WHEN MIN. R.F.=1)  AT K=   1, I=   5, J=   5

 MAXIMUM STEPSIZE WHICH MEETS STABILITY CRITERION OF THE DISPERSION TERM
 =  384.1    (WHEN MIN. R.F.=1)  AT K=   1, I=   5, J=   5


     1 CALLS TO GCG PACKAGE FOR TRANSPORT TIME STEP   1 IN FLOW TIME STEP  31 STRESS PERIOD   4
     2 TOTAL ITERATIONS
  MAXIMUM CONCENTRATION CHANGES FOR EACH ITERATION:
  MAX. CHANGE LAYER,ROW,COL MAX. CHANGE LAYER,ROW,COL MAX. CHANGE LAYER,ROW,COL MAX. CHANGE LAYER,ROW,COL MAX. CHANGE LAYER,ROW,COL
 ------------------------------------------------------------------------------------------------------------------------------------
   0.1488E-02 (  1,  5,  5)  0.1421E-13 (  2,  3,  7)


                                          ================================================
                                                         TIME STEP NO.  032
                                          ================================================

 FROM TIME =   232.00     TO    233.00    


                    "THKSAT          " FLOW TERMS FOR TIME STEP 32, STRESS PERIOD  4 READ UNFORMATTED ON UNIT 10
                    --------------------------------------------------------------------------------------------

                    "QXX             " FLOW TERMS FOR TIME STEP 32, STRESS PERIOD  4 READ UNFORMATTED ON UNIT 10
                    --------------------------------------------------------------------------------------------

                    "QYY             " FLOW TERMS FOR TIME STEP 32, STRESS PERIOD  4 READ UNFORMATTED ON UNIT 10
                    --------------------------------------------------------------------------------------------

                    "QZZ             " FLOW TERMS FOR TIME STEP 32, STRESS PERIOD  4 READ UNFORMATTED ON UNIT 10
                    --------------------------------------------------------------------------------------------

                    "STO             " FLOW TERMS FOR TIME STEP 32, STRESS PERIOD  4 READ UNFORMATTED ON UNIT 10
                    --------------------------------------------------------------------------------------------

 MAXIMUM STEPSIZE DURING WHICH ANY PARTICLE CANNOT MOVE MORE THAN ONE CELL
 =  601.6    (WHEN MIN. R.F.=1)  AT K=   2, I=   5, J=   5

 MAXIMUM STEPSIZE WHICH MEETS STABILITY CRITERION OF THE ADVECTION TERM
 (FOR PURE FINITE-DIFFERENCE OPTION, MIXELM=0) 
 =  189.8    (WHEN MIN. R.F.=1)  AT K=   2, I=   5, J=   5

                    "CNH             " FLOW TERMS FOR TIME STEP 32, STRESS PERIOD  4 READ UNFORMATTED ON UNIT 10
                    --------------------------------------------------------------------------------------------

                    "WEL             " FLOW TERMS FOR TIME STEP 32, STRESS PERIOD  4 READ UNFORMATTED ON UNIT 10
                    --------------------------------------------------------------------------------------------

                    "GHB             " FLOW TERMS FOR TIME STEP 32, STRESS PERIOD  4 READ UNFORMATTED ON UNIT 10
                    --------------------------------------------------------------------------------------------


 TOTAL NUMBER OF POINT SOURCES/SINKS PRESENT IN THE FLOW MODEL =    41

 MAXIMUM STEPSIZE WHICH MEETS STABILITY CRITERION OF THE SINK & SOURCE TERM
 =  128.6    (WHEN MIN. R.F.=1)  AT K=   1, I=   5, J=   5

 MAXIMUM STEPSIZE WHICH MEETS STABILITY CRITERION OF THE DISPERSION TERM
 =  384.1    (WHEN MIN. R.F.=1)  AT K=   1, I=   5, J=   5


     1 CALLS TO GCG PACKAGE FOR TRANSPORT TIME STEP   1 IN FLOW TIME STEP  32 STRESS PERIOD   4
     2 TOTAL ITERATIONS
  MAXIMUM CONCENTRATION CHANGES FOR EACH ITERATION:
  MAX. CHANGE LAYER,ROW,COL MAX. CHANGE LAYER,ROW,COL MAX. CHANGE LAYER,ROW,COL MAX. CHANGE LAYER,ROW,COL MAX. CHANGE LAYER,ROW,COL
 ------------------------------------------------------------------------------------------------------------------------------------
   0.1472E-02 (  1,  5,  5)  0.1421E-13 (  2,  3,  7)


                                          ================================================
                                                         TIME STEP NO.  033
                                          ================================================

 FROM TIME =   233.00     TO    234.00    


                    "THKSAT          " FLOW TERMS FOR TIME STEP 33, STRESS PERIOD  4 READ UNFORMATTED ON UNIT 10
                    --------------------------------------------------------------------------------------------

                    "QXX             " FLOW TERMS FOR TIME STEP 33, STRESS PERIOD  4 READ UNFORMATTED ON UNIT 10
                    --------------------------------------------------------------------------------------------

                    "QYY             " FLOW TERMS FOR TIME STEP 33, STRESS PERIOD  4 READ UNFORMATTED ON UNIT 10
                    --------------------------------------------------------------------------------------------

                    "QZZ             " FLOW TERMS FOR TIME STEP 33, STRESS PERIOD  4 READ UNFORMATTED ON UNIT 10
                    --------------------------------------------------------------------------------------------

                    "STO             " FLOW TERMS FOR TIME STEP 33, STRESS PERIOD  4 READ UNFORMATTED ON UNIT 10
                    --------------------------------------------------------------------------------------------

 MAXIMUM STEPSIZE DURING WHICH ANY PARTICLE CANNOT MOVE MORE THAN ONE CELL
 =  601.6    (WHEN MIN. R.F.=1)  AT K=   2, I=   5, J=   5

 MAXIMUM STEPSIZE WHICH MEETS STABILITY CRITERION OF THE ADVECTION TERM
 (FOR PURE FINITE-DIFFERENCE OPTION, MIXELM=0) 
 =  189.8    (WHEN MIN. R.F.=1)  AT K=   2, I=   5, J=   5

                    "CNH             " FLOW TERMS FOR TIME STEP 33, STRESS PERIOD  4 READ UNFORMATTED ON UNIT 10
                    --------------------------------------------------------------------------------------------

                    "WEL             " FLOW TERMS FOR TIME STEP 33, STRESS PERIOD  4 READ UNFORMATTED ON UNIT 10
                    --------------------------------------------------------------------------------------------

                    "GHB             " FLOW TERMS FOR TIME STEP 33, STRESS PERIOD  4 READ UNFORMATTED ON UNIT 10
                    --------------------------------------------------------------------------------------------


 TOTAL NUMBER OF POINT SOURCES/SINKS PRESENT IN THE FLOW MODEL =    41

 MAXIMUM STEPSIZE WHICH MEETS STABILITY CRITERION OF THE SINK & SOURCE TERM
 =  128.6    (WHEN MIN. R.F.=1)  AT K=   1, I=   5, J=   5

 MAXIMUM STEPSIZE WHICH MEETS STABILITY CRITERION OF THE DISPERSION TERM
 =  384.1    (WHEN MIN. R.F.=1)  AT K=   1, I=   5, J=   5


     1 CALLS TO GCG PACKAGE FOR TRANSPORT TIME STEP   1 IN FLOW TIME STEP  33 STRESS PERIOD   4
     2 TOTAL ITERATIONS
  MAXIMUM CONCENTRATION CHANGES FOR EACH ITERATION:
  MAX. CHANGE LAYER,ROW,COL MAX. CHANGE LAYER,ROW,COL MAX. CHANGE LAYER,ROW,COL MAX. CHANGE LAYER,ROW,COL MAX. CHANGE LAYER,ROW,COL
 ------------------------------------------------------------------------------------------------------------------------------------
   0.1457E-02 (  1,  5,  5)  0.1421E-13 (  2,  3,  7)


                                          ================================================
                                                         TIME STEP NO.  034
                                          ================================================

 FROM TIME =   234.00     TO    235.00    


                    "THKSAT          " FLOW TERMS FOR TIME STEP 34, STRESS PERIOD  4 READ UNFORMATTED ON UNIT 10
                    --------------------------------------------------------------------------------------------

                    "QXX             " FLOW TERMS FOR TIME STEP 34, STRESS PERIOD  4 READ UNFORMATTED ON UNIT 10
                    --------------------------------------------------------------------------------------------

                    "QYY             " FLOW TERMS FOR TIME STEP 34, STRESS PERIOD  4 READ UNFORMATTED ON UNIT 10
                    --------------------------------------------------------------------------------------------

                    "QZZ             " FLOW TERMS FOR TIME STEP 34, STRESS PERIOD  4 READ UNFORMATTED ON UNIT 10
                    --------------------------------------------------------------------------------------------

                    "STO             " FLOW TERMS FOR TIME STEP 34, STRESS PERIOD  4 READ UNFORMATTED ON UNIT 10
                    --------------------------------------------------------------------------------------------

 MAXIMUM STEPSIZE DURING WHICH ANY PARTICLE CANNOT MOVE MORE THAN ONE CELL
 =  601.6    (WHEN MIN. R.F.=1)  AT K=   2, I=   5, J=   5

 MAXIMUM STEPSIZE WHICH MEETS STABILITY CRITERION OF THE ADVECTION TERM
 (FOR PURE FINITE-DIFFERENCE OPTION, MIXELM=0) 
 =  189.8    (WHEN MIN. R.F.=1)  AT K=   2, I=   5, J=   5

                    "CNH             " FLOW TERMS FOR TIME STEP 34, STRESS PERIOD  4 READ UNFORMATTED ON UNIT 10
                    --------------------------------------------------------------------------------------------

                    "WEL             " FLOW TERMS FOR TIME STEP 34, STRESS PERIOD  4 READ UNFORMATTED ON UNIT 10
                    --------------------------------------------------------------------------------------------

                    "GHB             " FLOW TERMS FOR TIME STEP 34, STRESS PERIOD  4 READ UNFORMATTED ON UNIT 10
                    --------------------------------------------------------------------------------------------


 TOTAL NUMBER OF POINT SOURCES/SINKS PRESENT IN THE FLOW MODEL =    41

 MAXIMUM STEPSIZE WHICH MEETS STABILITY CRITERION OF THE SINK & SOURCE TERM
 =  128.6    (WHEN MIN. R.F.=1)  AT K=   1, I=   5, J=   5

 MAXIMUM STEPSIZE WHICH MEETS STABILITY CRITERION OF THE DISPERSION TERM
 =  384.2    (WHEN MIN. R.F.=1)  AT K=   1, I=   5, J=   5


     1 CALLS TO GCG PACKAGE FOR TRANSPORT TIME STEP   1 IN FLOW TIME STEP  34 STRESS PERIOD   4
     2 TOTAL ITERATIONS
  MAXIMUM CONCENTRATION CHANGES FOR EACH ITERATION:
  MAX. CHANGE LAYER,ROW,COL MAX. CHANGE LAYER,ROW,COL MAX. CHANGE LAYER,ROW,COL MAX. CHANGE LAYER,ROW,COL MAX. CHANGE LAYER,ROW,COL
 ------------------------------------------------------------------------------------------------------------------------------------
   0.1441E-02 (  1,  5,  5)  0.1421E-13 (  2,  3,  7)


                                          ================================================
                                                         TIME STEP NO.  035
                                          ================================================

 FROM TIME =   235.00     TO    236.00    


                    "THKSAT          " FLOW TERMS FOR TIME STEP 35, STRESS PERIOD  4 READ UNFORMATTED ON UNIT 10
                    --------------------------------------------------------------------------------------------

                    "QXX             " FLOW TERMS FOR TIME STEP 35, STRESS PERIOD  4 READ UNFORMATTED ON UNIT 10
                    --------------------------------------------------------------------------------------------

                    "QYY             " FLOW TERMS FOR TIME STEP 35, STRESS PERIOD  4 READ UNFORMATTED ON UNIT 10
                    --------------------------------------------------------------------------------------------

                    "QZZ             " FLOW TERMS FOR TIME STEP 35, STRESS PERIOD  4 READ UNFORMATTED ON UNIT 10
                    --------------------------------------------------------------------------------------------

                    "STO             " FLOW TERMS FOR TIME STEP 35, STRESS PERIOD  4 READ UNFORMATTED ON UNIT 10
                    --------------------------------------------------------------------------------------------

 MAXIMUM STEPSIZE DURING WHICH ANY PARTICLE CANNOT MOVE MORE THAN ONE CELL
 =  601.6    (WHEN MIN. R.F.=1)  AT K=   2, I=   5, J=   5

 MAXIMUM STEPSIZE WHICH MEETS STABILITY CRITERION OF THE ADVECTION TERM
 (FOR PURE FINITE-DIFFERENCE OPTION, MIXELM=0) 
 =  189.7    (WHEN MIN. R.F.=1)  AT K=   2, I=   5, J=   5

                    "CNH             " FLOW TERMS FOR TIME STEP 35, STRESS PERIOD  4 READ UNFORMATTED ON UNIT 10
                    --------------------------------------------------------------------------------------------

                    "WEL             " FLOW TERMS FOR TIME STEP 35, STRESS PERIOD  4 READ UNFORMATTED ON UNIT 10
                    --------------------------------------------------------------------------------------------

                    "GHB             " FLOW TERMS FOR TIME STEP 35, STRESS PERIOD  4 READ UNFORMATTED ON UNIT 10
                    --------------------------------------------------------------------------------------------


 TOTAL NUMBER OF POINT SOURCES/SINKS PRESENT IN THE FLOW MODEL =    41

 MAXIMUM STEPSIZE WHICH MEETS STABILITY CRITERION OF THE SINK & SOURCE TERM
 =  128.6    (WHEN MIN. R.F.=1)  AT K=   1, I=   5, J=   5

 MAXIMUM STEPSIZE WHICH MEETS STABILITY CRITERION OF THE DISPERSION TERM
 =  384.2    (WHEN MIN. R.F.=1)  AT K=   1, I=   5, J=   5


     1 CALLS TO GCG PACKAGE FOR TRANSPORT TIME STEP   1 IN FLOW TIME STEP  35 STRESS PERIOD   4
     2 TOTAL ITERATIONS
  MAXIMUM CONCENTRATION CHANGES FOR EACH ITERATION:
  MAX. CHANGE LAYER,ROW,COL MAX. CHANGE LAYER,ROW,COL MAX. CHANGE LAYER,ROW,COL MAX. CHANGE LAYER,ROW,COL MAX. CHANGE LAYER,ROW,COL
 ------------------------------------------------------------------------------------------------------------------------------------
   0.1427E-02 (  1,  5,  5)  0.1421E-13 (  2,  3,  7)


                                          ================================================
                                                         TIME STEP NO.  036
                                          ================================================

 FROM TIME =   236.00     TO    237.00    


                    "THKSAT          " FLOW TERMS FOR TIME STEP 36, STRESS PERIOD  4 READ UNFORMATTED ON UNIT 10
                    --------------------------------------------------------------------------------------------

                    "QXX             " FLOW TERMS FOR TIME STEP 36, STRESS PERIOD  4 READ UNFORMATTED ON UNIT 10
                    --------------------------------------------------------------------------------------------

                    "QYY             " FLOW TERMS FOR TIME STEP 36, STRESS PERIOD  4 READ UNFORMATTED ON UNIT 10
                    --------------------------------------------------------------------------------------------

                    "QZZ             " FLOW TERMS FOR TIME STEP 36, STRESS PERIOD  4 READ UNFORMATTED ON UNIT 10
                    --------------------------------------------------------------------------------------------

                    "STO             " FLOW TERMS FOR TIME STEP 36, STRESS PERIOD  4 READ UNFORMATTED ON UNIT 10
                    --------------------------------------------------------------------------------------------

 MAXIMUM STEPSIZE DURING WHICH ANY PARTICLE CANNOT MOVE MORE THAN ONE CELL
 =  601.6    (WHEN MIN. R.F.=1)  AT K=   2, I=   5, J=   5

 MAXIMUM STEPSIZE WHICH MEETS STABILITY CRITERION OF THE ADVECTION TERM
 (FOR PURE FINITE-DIFFERENCE OPTION, MIXELM=0) 
 =  189.7    (WHEN MIN. R.F.=1)  AT K=   2, I=   5, J=   5

                    "CNH             " FLOW TERMS FOR TIME STEP 36, STRESS PERIOD  4 READ UNFORMATTED ON UNIT 10
                    --------------------------------------------------------------------------------------------

                    "WEL             " FLOW TERMS FOR TIME STEP 36, STRESS PERIOD  4 READ UNFORMATTED ON UNIT 10
                    --------------------------------------------------------------------------------------------

                    "GHB             " FLOW TERMS FOR TIME STEP 36, STRESS PERIOD  4 READ UNFORMATTED ON UNIT 10
                    --------------------------------------------------------------------------------------------


 TOTAL NUMBER OF POINT SOURCES/SINKS PRESENT IN THE FLOW MODEL =    41

 MAXIMUM STEPSIZE WHICH MEETS STABILITY CRITERION OF THE SINK & SOURCE TERM
 =  128.6    (WHEN MIN. R.F.=1)  AT K=   1, I=   5, J=   5

 MAXIMUM STEPSIZE WHICH MEETS STABILITY CRITERION OF THE DISPERSION TERM
 =  384.2    (WHEN MIN. R.F.=1)  AT K=   1, I=   5, J=   5


     1 CALLS TO GCG PACKAGE FOR TRANSPORT TIME STEP   1 IN FLOW TIME STEP  36 STRESS PERIOD   4
     2 TOTAL ITERATIONS
  MAXIMUM CONCENTRATION CHANGES FOR EACH ITERATION:
  MAX. CHANGE LAYER,ROW,COL MAX. CHANGE LAYER,ROW,COL MAX. CHANGE LAYER,ROW,COL MAX. CHANGE LAYER,ROW,COL MAX. CHANGE LAYER,ROW,COL
 ------------------------------------------------------------------------------------------------------------------------------------
   0.1412E-02 (  1,  5,  5)  0.1421E-13 (  2,  3,  7)


                                          ================================================
                                                         TIME STEP NO.  037
                                          ================================================

 FROM TIME =   237.00     TO    238.00    


                    "THKSAT          " FLOW TERMS FOR TIME STEP 37, STRESS PERIOD  4 READ UNFORMATTED ON UNIT 10
                    --------------------------------------------------------------------------------------------

                    "QXX             " FLOW TERMS FOR TIME STEP 37, STRESS PERIOD  4 READ UNFORMATTED ON UNIT 10
                    --------------------------------------------------------------------------------------------

                    "QYY             " FLOW TERMS FOR TIME STEP 37, STRESS PERIOD  4 READ UNFORMATTED ON UNIT 10
                    --------------------------------------------------------------------------------------------

                    "QZZ             " FLOW TERMS FOR TIME STEP 37, STRESS PERIOD  4 READ UNFORMATTED ON UNIT 10
                    --------------------------------------------------------------------------------------------

                    "STO             " FLOW TERMS FOR TIME STEP 37, STRESS PERIOD  4 READ UNFORMATTED ON UNIT 10
                    --------------------------------------------------------------------------------------------

 MAXIMUM STEPSIZE DURING WHICH ANY PARTICLE CANNOT MOVE MORE THAN ONE CELL
 =  601.6    (WHEN MIN. R.F.=1)  AT K=   2, I=   5, J=   5

 MAXIMUM STEPSIZE WHICH MEETS STABILITY CRITERION OF THE ADVECTION TERM
 (FOR PURE FINITE-DIFFERENCE OPTION, MIXELM=0) 
 =  189.7    (WHEN MIN. R.F.=1)  AT K=   2, I=   5, J=   5

                    "CNH             " FLOW TERMS FOR TIME STEP 37, STRESS PERIOD  4 READ UNFORMATTED ON UNIT 10
                    --------------------------------------------------------------------------------------------

                    "WEL             " FLOW TERMS FOR TIME STEP 37, STRESS PERIOD  4 READ UNFORMATTED ON UNIT 10
                    --------------------------------------------------------------------------------------------

                    "GHB             " FLOW TERMS FOR TIME STEP 37, STRESS PERIOD  4 READ UNFORMATTED ON UNIT 10
                    --------------------------------------------------------------------------------------------


 TOTAL NUMBER OF POINT SOURCES/SINKS PRESENT IN THE FLOW MODEL =    41

 MAXIMUM STEPSIZE WHICH MEETS STABILITY CRITERION OF THE SINK & SOURCE TERM
 =  128.6    (WHEN MIN. R.F.=1)  AT K=   1, I=   5, J=   5

 MAXIMUM STEPSIZE WHICH MEETS STABILITY CRITERION OF THE DISPERSION TERM
 =  384.2    (WHEN MIN. R.F.=1)  AT K=   1, I=   5, J=   5


     1 CALLS TO GCG PACKAGE FOR TRANSPORT TIME STEP   1 IN FLOW TIME STEP  37 STRESS PERIOD   4
     2 TOTAL ITERATIONS
  MAXIMUM CONCENTRATION CHANGES FOR EACH ITERATION:
  MAX. CHANGE LAYER,ROW,COL MAX. CHANGE LAYER,ROW,COL MAX. CHANGE LAYER,ROW,COL MAX. CHANGE LAYER,ROW,COL MAX. CHANGE LAYER,ROW,COL
 ------------------------------------------------------------------------------------------------------------------------------------
   0.1397E-02 (  1,  5,  5)  0.1421E-13 (  2,  3,  7)


                                          ================================================
                                                         TIME STEP NO.  038
                                          ================================================

 FROM TIME =   238.00     TO    239.00    


                    "THKSAT          " FLOW TERMS FOR TIME STEP 38, STRESS PERIOD  4 READ UNFORMATTED ON UNIT 10
                    --------------------------------------------------------------------------------------------

                    "QXX             " FLOW TERMS FOR TIME STEP 38, STRESS PERIOD  4 READ UNFORMATTED ON UNIT 10
                    --------------------------------------------------------------------------------------------

                    "QYY             " FLOW TERMS FOR TIME STEP 38, STRESS PERIOD  4 READ UNFORMATTED ON UNIT 10
                    --------------------------------------------------------------------------------------------

                    "QZZ             " FLOW TERMS FOR TIME STEP 38, STRESS PERIOD  4 READ UNFORMATTED ON UNIT 10
                    --------------------------------------------------------------------------------------------

                    "STO             " FLOW TERMS FOR TIME STEP 38, STRESS PERIOD  4 READ UNFORMATTED ON UNIT 10
                    --------------------------------------------------------------------------------------------

 MAXIMUM STEPSIZE DURING WHICH ANY PARTICLE CANNOT MOVE MORE THAN ONE CELL
 =  601.6    (WHEN MIN. R.F.=1)  AT K=   2, I=   5, J=   5

 MAXIMUM STEPSIZE WHICH MEETS STABILITY CRITERION OF THE ADVECTION TERM
 (FOR PURE FINITE-DIFFERENCE OPTION, MIXELM=0) 
 =  189.7    (WHEN MIN. R.F.=1)  AT K=   2, I=   5, J=   5

                    "CNH             " FLOW TERMS FOR TIME STEP 38, STRESS PERIOD  4 READ UNFORMATTED ON UNIT 10
                    --------------------------------------------------------------------------------------------

                    "WEL             " FLOW TERMS FOR TIME STEP 38, STRESS PERIOD  4 READ UNFORMATTED ON UNIT 10
                    --------------------------------------------------------------------------------------------

                    "GHB             " FLOW TERMS FOR TIME STEP 38, STRESS PERIOD  4 READ UNFORMATTED ON UNIT 10
                    --------------------------------------------------------------------------------------------


 TOTAL NUMBER OF POINT SOURCES/SINKS PRESENT IN THE FLOW MODEL =    41

 MAXIMUM STEPSIZE WHICH MEETS STABILITY CRITERION OF THE SINK & SOURCE TERM
 =  128.6    (WHEN MIN. R.F.=1)  AT K=   1, I=   5, J=   5

 MAXIMUM STEPSIZE WHICH MEETS STABILITY CRITERION OF THE DISPERSION TERM
 =  384.2    (WHEN MIN. R.F.=1)  AT K=   1, I=   5, J=   5


     1 CALLS TO GCG PACKAGE FOR TRANSPORT TIME STEP   1 IN FLOW TIME STEP  38 STRESS PERIOD   4
     2 TOTAL ITERATIONS
  MAXIMUM CONCENTRATION CHANGES FOR EACH ITERATION:
  MAX. CHANGE LAYER,ROW,COL MAX. CHANGE LAYER,ROW,COL MAX. CHANGE LAYER,ROW,COL MAX. CHANGE LAYER,ROW,COL MAX. CHANGE LAYER,ROW,COL
 ------------------------------------------------------------------------------------------------------------------------------------
   0.1383E-02 (  1,  5,  5)  0.1421E-13 (  2,  3,  7)


                                          ================================================
                                                         TIME STEP NO.  039
                                          ================================================

 FROM TIME =   239.00     TO    240.00    


                    "THKSAT          " FLOW TERMS FOR TIME STEP 39, STRESS PERIOD  4 READ UNFORMATTED ON UNIT 10
                    --------------------------------------------------------------------------------------------

                    "QXX             " FLOW TERMS FOR TIME STEP 39, STRESS PERIOD  4 READ UNFORMATTED ON UNIT 10
                    --------------------------------------------------------------------------------------------

                    "QYY             " FLOW TERMS FOR TIME STEP 39, STRESS PERIOD  4 READ UNFORMATTED ON UNIT 10
                    --------------------------------------------------------------------------------------------

                    "QZZ             " FLOW TERMS FOR TIME STEP 39, STRESS PERIOD  4 READ UNFORMATTED ON UNIT 10
                    --------------------------------------------------------------------------------------------

                    "STO             " FLOW TERMS FOR TIME STEP 39, STRESS PERIOD  4 READ UNFORMATTED ON UNIT 10
                    --------------------------------------------------------------------------------------------

 MAXIMUM STEPSIZE DURING WHICH ANY PARTICLE CANNOT MOVE MORE THAN ONE CELL
 =  601.5    (WHEN MIN. R.F.=1)  AT K=   2, I=   5, J=   5

 MAXIMUM STEPSIZE WHICH MEETS STABILITY CRITERION OF THE ADVECTION TERM
 (FOR PURE FINITE-DIFFERENCE OPTION, MIXELM=0) 
 =  189.6    (WHEN MIN. R.F.=1)  AT K=   2, I=   5, J=   5

                    "CNH             " FLOW TERMS FOR TIME STEP 39, STRESS PERIOD  4 READ UNFORMATTED ON UNIT 10
                    --------------------------------------------------------------------------------------------

                    "WEL             " FLOW TERMS FOR TIME STEP 39, STRESS PERIOD  4 READ UNFORMATTED ON UNIT 10
                    --------------------------------------------------------------------------------------------

                    "GHB             " FLOW TERMS FOR TIME STEP 39, STRESS PERIOD  4 READ UNFORMATTED ON UNIT 10
                    --------------------------------------------------------------------------------------------


 TOTAL NUMBER OF POINT SOURCES/SINKS PRESENT IN THE FLOW MODEL =    41

 MAXIMUM STEPSIZE WHICH MEETS STABILITY CRITERION OF THE SINK & SOURCE TERM
 =  128.6    (WHEN MIN. R.F.=1)  AT K=   1, I=   5, J=   5

 MAXIMUM STEPSIZE WHICH MEETS STABILITY CRITERION OF THE DISPERSION TERM
 =  384.3    (WHEN MIN. R.F.=1)  AT K=   1, I=   5, J=   5


     1 CALLS TO GCG PACKAGE FOR TRANSPORT TIME STEP   1 IN FLOW TIME STEP  39 STRESS PERIOD   4
     2 TOTAL ITERATIONS
  MAXIMUM CONCENTRATION CHANGES FOR EACH ITERATION:
  MAX. CHANGE LAYER,ROW,COL MAX. CHANGE LAYER,ROW,COL MAX. CHANGE LAYER,ROW,COL MAX. CHANGE LAYER,ROW,COL MAX. CHANGE LAYER,ROW,COL
 ------------------------------------------------------------------------------------------------------------------------------------
   0.1369E-02 (  1,  5,  5)  0.1421E-13 (  2,  3,  7)


                                          ================================================
                                                         TIME STEP NO.  040
                                          ================================================

 FROM TIME =   240.00     TO    241.00    


                    "THKSAT          " FLOW TERMS FOR TIME STEP 40, STRESS PERIOD  4 READ UNFORMATTED ON UNIT 10
                    --------------------------------------------------------------------------------------------

                    "QXX             " FLOW TERMS FOR TIME STEP 40, STRESS PERIOD  4 READ UNFORMATTED ON UNIT 10
                    --------------------------------------------------------------------------------------------

                    "QYY             " FLOW TERMS FOR TIME STEP 40, STRESS PERIOD  4 READ UNFORMATTED ON UNIT 10
                    --------------------------------------------------------------------------------------------

                    "QZZ             " FLOW TERMS FOR TIME STEP 40, STRESS PERIOD  4 READ UNFORMATTED ON UNIT 10
                    --------------------------------------------------------------------------------------------

                    "STO             " FLOW TERMS FOR TIME STEP 40, STRESS PERIOD  4 READ UNFORMATTED ON UNIT 10
                    --------------------------------------------------------------------------------------------

 MAXIMUM STEPSIZE DURING WHICH ANY PARTICLE CANNOT MOVE MORE THAN ONE CELL
 =  601.5    (WHEN MIN. R.F.=1)  AT K=   2, I=   5, J=   5

 MAXIMUM STEPSIZE WHICH MEETS STABILITY CRITERION OF THE ADVECTION TERM
 (FOR PURE FINITE-DIFFERENCE OPTION, MIXELM=0) 
 =  189.6    (WHEN MIN. R.F.=1)  AT K=   2, I=   5, J=   5

                    "CNH             " FLOW TERMS FOR TIME STEP 40, STRESS PERIOD  4 READ UNFORMATTED ON UNIT 10
                    --------------------------------------------------------------------------------------------

                    "WEL             " FLOW TERMS FOR TIME STEP 40, STRESS PERIOD  4 READ UNFORMATTED ON UNIT 10
                    --------------------------------------------------------------------------------------------

                    "GHB             " FLOW TERMS FOR TIME STEP 40, STRESS PERIOD  4 READ UNFORMATTED ON UNIT 10
                    --------------------------------------------------------------------------------------------


 TOTAL NUMBER OF POINT SOURCES/SINKS PRESENT IN THE FLOW MODEL =    41

 MAXIMUM STEPSIZE WHICH MEETS STABILITY CRITERION OF THE SINK & SOURCE TERM
 =  128.6    (WHEN MIN. R.F.=1)  AT K=   1, I=   5, J=   5

 MAXIMUM STEPSIZE WHICH MEETS STABILITY CRITERION OF THE DISPERSION TERM
 =  384.3    (WHEN MIN. R.F.=1)  AT K=   1, I=   5, J=   5


     1 CALLS TO GCG PACKAGE FOR TRANSPORT TIME STEP   1 IN FLOW TIME STEP  40 STRESS PERIOD   4
     2 TOTAL ITERATIONS
  MAXIMUM CONCENTRATION CHANGES FOR EACH ITERATION:
  MAX. CHANGE LAYER,ROW,COL MAX. CHANGE LAYER,ROW,COL MAX. CHANGE LAYER,ROW,COL MAX. CHANGE LAYER,ROW,COL MAX. CHANGE LAYER,ROW,COL
 ------------------------------------------------------------------------------------------------------------------------------------
   0.1354E-02 (  1,  5,  5)  0.1421E-13 (  2,  3,  7)


                                          ================================================
                                                         TIME STEP NO.  041
                                          ================================================

 FROM TIME =   241.00     TO    242.00    


                    "THKSAT          " FLOW TERMS FOR TIME STEP 41, STRESS PERIOD  4 READ UNFORMATTED ON UNIT 10
                    --------------------------------------------------------------------------------------------

                    "QXX             " FLOW TERMS FOR TIME STEP 41, STRESS PERIOD  4 READ UNFORMATTED ON UNIT 10
                    --------------------------------------------------------------------------------------------

                    "QYY             " FLOW TERMS FOR TIME STEP 41, STRESS PERIOD  4 READ UNFORMATTED ON UNIT 10
                    --------------------------------------------------------------------------------------------

                    "QZZ             " FLOW TERMS FOR TIME STEP 41, STRESS PERIOD  4 READ UNFORMATTED ON UNIT 10
                    --------------------------------------------------------------------------------------------

                    "STO             " FLOW TERMS FOR TIME STEP 41, STRESS PERIOD  4 READ UNFORMATTED ON UNIT 10
                    --------------------------------------------------------------------------------------------

 MAXIMUM STEPSIZE DURING WHICH ANY PARTICLE CANNOT MOVE MORE THAN ONE CELL
 =  601.5    (WHEN MIN. R.F.=1)  AT K=   2, I=   5, J=   5

 MAXIMUM STEPSIZE WHICH MEETS STABILITY CRITERION OF THE ADVECTION TERM
 (FOR PURE FINITE-DIFFERENCE OPTION, MIXELM=0) 
 =  189.6    (WHEN MIN. R.F.=1)  AT K=   2, I=   5, J=   5

                    "CNH             " FLOW TERMS FOR TIME STEP 41, STRESS PERIOD  4 READ UNFORMATTED ON UNIT 10
                    --------------------------------------------------------------------------------------------

                    "WEL             " FLOW TERMS FOR TIME STEP 41, STRESS PERIOD  4 READ UNFORMATTED ON UNIT 10
                    --------------------------------------------------------------------------------------------

                    "GHB             " FLOW TERMS FOR TIME STEP 41, STRESS PERIOD  4 READ UNFORMATTED ON UNIT 10
                    --------------------------------------------------------------------------------------------


 TOTAL NUMBER OF POINT SOURCES/SINKS PRESENT IN THE FLOW MODEL =    41

 MAXIMUM STEPSIZE WHICH MEETS STABILITY CRITERION OF THE SINK & SOURCE TERM
 =  128.6    (WHEN MIN. R.F.=1)  AT K=   1, I=   5, J=   5

 MAXIMUM STEPSIZE WHICH MEETS STABILITY CRITERION OF THE DISPERSION TERM
 =  384.3    (WHEN MIN. R.F.=1)  AT K=   1, I=   5, J=   5


     1 CALLS TO GCG PACKAGE FOR TRANSPORT TIME STEP   1 IN FLOW TIME STEP  41 STRESS PERIOD   4
     2 TOTAL ITERATIONS
  MAXIMUM CONCENTRATION CHANGES FOR EACH ITERATION:
  MAX. CHANGE LAYER,ROW,COL MAX. CHANGE LAYER,ROW,COL MAX. CHANGE LAYER,ROW,COL MAX. CHANGE LAYER,ROW,COL MAX. CHANGE LAYER,ROW,COL
 ------------------------------------------------------------------------------------------------------------------------------------
   0.1340E-02 (  1,  5,  5)  0.1421E-13 (  2,  3,  7)


                                          ================================================
                                                         TIME STEP NO.  042
                                          ================================================

 FROM TIME =   242.00     TO    243.00    


                    "THKSAT          " FLOW TERMS FOR TIME STEP 42, STRESS PERIOD  4 READ UNFORMATTED ON UNIT 10
                    --------------------------------------------------------------------------------------------

                    "QXX             " FLOW TERMS FOR TIME STEP 42, STRESS PERIOD  4 READ UNFORMATTED ON UNIT 10
                    --------------------------------------------------------------------------------------------

                    "QYY             " FLOW TERMS FOR TIME STEP 42, STRESS PERIOD  4 READ UNFORMATTED ON UNIT 10
                    --------------------------------------------------------------------------------------------

                    "QZZ             " FLOW TERMS FOR TIME STEP 42, STRESS PERIOD  4 READ UNFORMATTED ON UNIT 10
                    --------------------------------------------------------------------------------------------

                    "STO             " FLOW TERMS FOR TIME STEP 42, STRESS PERIOD  4 READ UNFORMATTED ON UNIT 10
                    --------------------------------------------------------------------------------------------

 MAXIMUM STEPSIZE DURING WHICH ANY PARTICLE CANNOT MOVE MORE THAN ONE CELL
 =  601.5    (WHEN MIN. R.F.=1)  AT K=   2, I=   5, J=   5

 MAXIMUM STEPSIZE WHICH MEETS STABILITY CRITERION OF THE ADVECTION TERM
 (FOR PURE FINITE-DIFFERENCE OPTION, MIXELM=0) 
 =  189.6    (WHEN MIN. R.F.=1)  AT K=   2, I=   5, J=   5

                    "CNH             " FLOW TERMS FOR TIME STEP 42, STRESS PERIOD  4 READ UNFORMATTED ON UNIT 10
                    --------------------------------------------------------------------------------------------

                    "WEL             " FLOW TERMS FOR TIME STEP 42, STRESS PERIOD  4 READ UNFORMATTED ON UNIT 10
                    --------------------------------------------------------------------------------------------

                    "GHB             " FLOW TERMS FOR TIME STEP 42, STRESS PERIOD  4 READ UNFORMATTED ON UNIT 10
                    --------------------------------------------------------------------------------------------


 TOTAL NUMBER OF POINT SOURCES/SINKS PRESENT IN THE FLOW MODEL =    41

 MAXIMUM STEPSIZE WHICH MEETS STABILITY CRITERION OF THE SINK & SOURCE TERM
 =  128.6    (WHEN MIN. R.F.=1)  AT K=   1, I=   5, J=   5

 MAXIMUM STEPSIZE WHICH MEETS STABILITY CRITERION OF THE DISPERSION TERM
 =  384.3    (WHEN MIN. R.F.=1)  AT K=   1, I=   5, J=   5


     1 CALLS TO GCG PACKAGE FOR TRANSPORT TIME STEP   1 IN FLOW TIME STEP  42 STRESS PERIOD   4
     2 TOTAL ITERATIONS
  MAXIMUM CONCENTRATION CHANGES FOR EACH ITERATION:
  MAX. CHANGE LAYER,ROW,COL MAX. CHANGE LAYER,ROW,COL MAX. CHANGE LAYER,ROW,COL MAX. CHANGE LAYER,ROW,COL MAX. CHANGE LAYER,ROW,COL
 ------------------------------------------------------------------------------------------------------------------------------------
   0.1327E-02 (  1,  5,  5)  0.3553E-14 (  1,  2,  7)


                                          ================================================
                                                         TIME STEP NO.  043
                                          ================================================

 FROM TIME =   243.00     TO    244.00    


                    "THKSAT          " FLOW TERMS FOR TIME STEP 43, STRESS PERIOD  4 READ UNFORMATTED ON UNIT 10
                    --------------------------------------------------------------------------------------------

                    "QXX             " FLOW TERMS FOR TIME STEP 43, STRESS PERIOD  4 READ UNFORMATTED ON UNIT 10
                    --------------------------------------------------------------------------------------------

                    "QYY             " FLOW TERMS FOR TIME STEP 43, STRESS PERIOD  4 READ UNFORMATTED ON UNIT 10
                    --------------------------------------------------------------------------------------------

                    "QZZ             " FLOW TERMS FOR TIME STEP 43, STRESS PERIOD  4 READ UNFORMATTED ON UNIT 10
                    --------------------------------------------------------------------------------------------

                    "STO             " FLOW TERMS FOR TIME STEP 43, STRESS PERIOD  4 READ UNFORMATTED ON UNIT 10
                    --------------------------------------------------------------------------------------------

 MAXIMUM STEPSIZE DURING WHICH ANY PARTICLE CANNOT MOVE MORE THAN ONE CELL
 =  601.5    (WHEN MIN. R.F.=1)  AT K=   2, I=   5, J=   5

 MAXIMUM STEPSIZE WHICH MEETS STABILITY CRITERION OF THE ADVECTION TERM
 (FOR PURE FINITE-DIFFERENCE OPTION, MIXELM=0) 
 =  189.5    (WHEN MIN. R.F.=1)  AT K=   2, I=   5, J=   5

                    "CNH             " FLOW TERMS FOR TIME STEP 43, STRESS PERIOD  4 READ UNFORMATTED ON UNIT 10
                    --------------------------------------------------------------------------------------------

                    "WEL             " FLOW TERMS FOR TIME STEP 43, STRESS PERIOD  4 READ UNFORMATTED ON UNIT 10
                    --------------------------------------------------------------------------------------------

                    "GHB             " FLOW TERMS FOR TIME STEP 43, STRESS PERIOD  4 READ UNFORMATTED ON UNIT 10
                    --------------------------------------------------------------------------------------------


 TOTAL NUMBER OF POINT SOURCES/SINKS PRESENT IN THE FLOW MODEL =    41

 MAXIMUM STEPSIZE WHICH MEETS STABILITY CRITERION OF THE SINK & SOURCE TERM
 =  128.6    (WHEN MIN. R.F.=1)  AT K=   1, I=   5, J=   5

 MAXIMUM STEPSIZE WHICH MEETS STABILITY CRITERION OF THE DISPERSION TERM
 =  384.3    (WHEN MIN. R.F.=1)  AT K=   1, I=   5, J=   5


     1 CALLS TO GCG PACKAGE FOR TRANSPORT TIME STEP   1 IN FLOW TIME STEP  43 STRESS PERIOD   4
     2 TOTAL ITERATIONS
  MAXIMUM CONCENTRATION CHANGES FOR EACH ITERATION:
  MAX. CHANGE LAYER,ROW,COL MAX. CHANGE LAYER,ROW,COL MAX. CHANGE LAYER,ROW,COL MAX. CHANGE LAYER,ROW,COL MAX. CHANGE LAYER,ROW,COL
 ------------------------------------------------------------------------------------------------------------------------------------
   0.1313E-02 (  1,  5,  5)  0.3553E-14 (  1,  2,  7)


                                          ================================================
                                                         TIME STEP NO.  044
                                          ================================================

 FROM TIME =   244.00     TO    245.00    


                    "THKSAT          " FLOW TERMS FOR TIME STEP 44, STRESS PERIOD  4 READ UNFORMATTED ON UNIT 10
                    --------------------------------------------------------------------------------------------

                    "QXX             " FLOW TERMS FOR TIME STEP 44, STRESS PERIOD  4 READ UNFORMATTED ON UNIT 10
                    --------------------------------------------------------------------------------------------

                    "QYY             " FLOW TERMS FOR TIME STEP 44, STRESS PERIOD  4 READ UNFORMATTED ON UNIT 10
                    --------------------------------------------------------------------------------------------

                    "QZZ             " FLOW TERMS FOR TIME STEP 44, STRESS PERIOD  4 READ UNFORMATTED ON UNIT 10
                    --------------------------------------------------------------------------------------------

                    "STO             " FLOW TERMS FOR TIME STEP 44, STRESS PERIOD  4 READ UNFORMATTED ON UNIT 10
                    --------------------------------------------------------------------------------------------

 MAXIMUM STEPSIZE DURING WHICH ANY PARTICLE CANNOT MOVE MORE THAN ONE CELL
 =  601.5    (WHEN MIN. R.F.=1)  AT K=   2, I=   5, J=   5

 MAXIMUM STEPSIZE WHICH MEETS STABILITY CRITERION OF THE ADVECTION TERM
 (FOR PURE FINITE-DIFFERENCE OPTION, MIXELM=0) 
 =  189.5    (WHEN MIN. R.F.=1)  AT K=   2, I=   5, J=   5

                    "CNH             " FLOW TERMS FOR TIME STEP 44, STRESS PERIOD  4 READ UNFORMATTED ON UNIT 10
                    --------------------------------------------------------------------------------------------

                    "WEL             " FLOW TERMS FOR TIME STEP 44, STRESS PERIOD  4 READ UNFORMATTED ON UNIT 10
                    --------------------------------------------------------------------------------------------

                    "GHB             " FLOW TERMS FOR TIME STEP 44, STRESS PERIOD  4 READ UNFORMATTED ON UNIT 10
                    --------------------------------------------------------------------------------------------


 TOTAL NUMBER OF POINT SOURCES/SINKS PRESENT IN THE FLOW MODEL =    41

 MAXIMUM STEPSIZE WHICH MEETS STABILITY CRITERION OF THE SINK & SOURCE TERM
 =  128.6    (WHEN MIN. R.F.=1)  AT K=   1, I=   5, J=   5

 MAXIMUM STEPSIZE WHICH MEETS STABILITY CRITERION OF THE DISPERSION TERM
 =  384.3    (WHEN MIN. R.F.=1)  AT K=   1, I=   5, J=   5


     1 CALLS TO GCG PACKAGE FOR TRANSPORT TIME STEP   1 IN FLOW TIME STEP  44 STRESS PERIOD   4
     2 TOTAL ITERATIONS
  MAXIMUM CONCENTRATION CHANGES FOR EACH ITERATION:
  MAX. CHANGE LAYER,ROW,COL MAX. CHANGE LAYER,ROW,COL MAX. CHANGE LAYER,ROW,COL MAX. CHANGE LAYER,ROW,COL MAX. CHANGE LAYER,ROW,COL
 ------------------------------------------------------------------------------------------------------------------------------------
   0.1299E-02 (  1,  5,  5)  0.3553E-14 (  1,  2,  7)


                                          ================================================
                                                         TIME STEP NO.  045
                                          ================================================

 FROM TIME =   245.00     TO    246.00    


                    "THKSAT          " FLOW TERMS FOR TIME STEP 45, STRESS PERIOD  4 READ UNFORMATTED ON UNIT 10
                    --------------------------------------------------------------------------------------------

                    "QXX             " FLOW TERMS FOR TIME STEP 45, STRESS PERIOD  4 READ UNFORMATTED ON UNIT 10
                    --------------------------------------------------------------------------------------------

                    "QYY             " FLOW TERMS FOR TIME STEP 45, STRESS PERIOD  4 READ UNFORMATTED ON UNIT 10
                    --------------------------------------------------------------------------------------------

                    "QZZ             " FLOW TERMS FOR TIME STEP 45, STRESS PERIOD  4 READ UNFORMATTED ON UNIT 10
                    --------------------------------------------------------------------------------------------

                    "STO             " FLOW TERMS FOR TIME STEP 45, STRESS PERIOD  4 READ UNFORMATTED ON UNIT 10
                    --------------------------------------------------------------------------------------------

 MAXIMUM STEPSIZE DURING WHICH ANY PARTICLE CANNOT MOVE MORE THAN ONE CELL
 =  601.5    (WHEN MIN. R.F.=1)  AT K=   2, I=   5, J=   5

 MAXIMUM STEPSIZE WHICH MEETS STABILITY CRITERION OF THE ADVECTION TERM
 (FOR PURE FINITE-DIFFERENCE OPTION, MIXELM=0) 
 =  189.5    (WHEN MIN. R.F.=1)  AT K=   2, I=   5, J=   5

                    "CNH             " FLOW TERMS FOR TIME STEP 45, STRESS PERIOD  4 READ UNFORMATTED ON UNIT 10
                    --------------------------------------------------------------------------------------------

                    "WEL             " FLOW TERMS FOR TIME STEP 45, STRESS PERIOD  4 READ UNFORMATTED ON UNIT 10
                    --------------------------------------------------------------------------------------------

                    "GHB             " FLOW TERMS FOR TIME STEP 45, STRESS PERIOD  4 READ UNFORMATTED ON UNIT 10
                    --------------------------------------------------------------------------------------------


 TOTAL NUMBER OF POINT SOURCES/SINKS PRESENT IN THE FLOW MODEL =    41

 MAXIMUM STEPSIZE WHICH MEETS STABILITY CRITERION OF THE SINK & SOURCE TERM
 =  128.6    (WHEN MIN. R.F.=1)  AT K=   1, I=   5, J=   5

 MAXIMUM STEPSIZE WHICH MEETS STABILITY CRITERION OF THE DISPERSION TERM
 =  384.3    (WHEN MIN. R.F.=1)  AT K=   1, I=   5, J=   5


     1 CALLS TO GCG PACKAGE FOR TRANSPORT TIME STEP   1 IN FLOW TIME STEP  45 STRESS PERIOD   4
     2 TOTAL ITERATIONS
  MAXIMUM CONCENTRATION CHANGES FOR EACH ITERATION:
  MAX. CHANGE LAYER,ROW,COL MAX. CHANGE LAYER,ROW,COL MAX. CHANGE LAYER,ROW,COL MAX. CHANGE LAYER,ROW,COL MAX. CHANGE LAYER,ROW,COL
 ------------------------------------------------------------------------------------------------------------------------------------
   0.1286E-02 (  1,  5,  5)  0.3553E-14 (  1,  2,  7)


                                          ================================================
                                                         TIME STEP NO.  046
                                          ================================================

 FROM TIME =   246.00     TO    247.00    


                    "THKSAT          " FLOW TERMS FOR TIME STEP 46, STRESS PERIOD  4 READ UNFORMATTED ON UNIT 10
                    --------------------------------------------------------------------------------------------

                    "QXX             " FLOW TERMS FOR TIME STEP 46, STRESS PERIOD  4 READ UNFORMATTED ON UNIT 10
                    --------------------------------------------------------------------------------------------

                    "QYY             " FLOW TERMS FOR TIME STEP 46, STRESS PERIOD  4 READ UNFORMATTED ON UNIT 10
                    --------------------------------------------------------------------------------------------

                    "QZZ             " FLOW TERMS FOR TIME STEP 46, STRESS PERIOD  4 READ UNFORMATTED ON UNIT 10
                    --------------------------------------------------------------------------------------------

                    "STO             " FLOW TERMS FOR TIME STEP 46, STRESS PERIOD  4 READ UNFORMATTED ON UNIT 10
                    --------------------------------------------------------------------------------------------

 MAXIMUM STEPSIZE DURING WHICH ANY PARTICLE CANNOT MOVE MORE THAN ONE CELL
 =  601.5    (WHEN MIN. R.F.=1)  AT K=   2, I=   5, J=   5

 MAXIMUM STEPSIZE WHICH MEETS STABILITY CRITERION OF THE ADVECTION TERM
 (FOR PURE FINITE-DIFFERENCE OPTION, MIXELM=0) 
 =  189.5    (WHEN MIN. R.F.=1)  AT K=   2, I=   5, J=   5

                    "CNH             " FLOW TERMS FOR TIME STEP 46, STRESS PERIOD  4 READ UNFORMATTED ON UNIT 10
                    --------------------------------------------------------------------------------------------

                    "WEL             " FLOW TERMS FOR TIME STEP 46, STRESS PERIOD  4 READ UNFORMATTED ON UNIT 10
                    --------------------------------------------------------------------------------------------

                    "GHB             " FLOW TERMS FOR TIME STEP 46, STRESS PERIOD  4 READ UNFORMATTED ON UNIT 10
                    --------------------------------------------------------------------------------------------


 TOTAL NUMBER OF POINT SOURCES/SINKS PRESENT IN THE FLOW MODEL =    41

 MAXIMUM STEPSIZE WHICH MEETS STABILITY CRITERION OF THE SINK & SOURCE TERM
 =  128.6    (WHEN MIN. R.F.=1)  AT K=   1, I=   5, J=   5

 MAXIMUM STEPSIZE WHICH MEETS STABILITY CRITERION OF THE DISPERSION TERM
 =  384.4    (WHEN MIN. R.F.=1)  AT K=   1, I=   5, J=   5


     1 CALLS TO GCG PACKAGE FOR TRANSPORT TIME STEP   1 IN FLOW TIME STEP  46 STRESS PERIOD   4
     2 TOTAL ITERATIONS
  MAXIMUM CONCENTRATION CHANGES FOR EACH ITERATION:
  MAX. CHANGE LAYER,ROW,COL MAX. CHANGE LAYER,ROW,COL MAX. CHANGE LAYER,ROW,COL MAX. CHANGE LAYER,ROW,COL MAX. CHANGE LAYER,ROW,COL
 ------------------------------------------------------------------------------------------------------------------------------------
   0.1273E-02 (  1,  5,  5)  0.3553E-14 (  1,  2,  7)


                                          ================================================
                                                         TIME STEP NO.  047
                                          ================================================

 FROM TIME =   247.00     TO    248.00    


                    "THKSAT          " FLOW TERMS FOR TIME STEP 47, STRESS PERIOD  4 READ UNFORMATTED ON UNIT 10
                    --------------------------------------------------------------------------------------------

                    "QXX             " FLOW TERMS FOR TIME STEP 47, STRESS PERIOD  4 READ UNFORMATTED ON UNIT 10
                    --------------------------------------------------------------------------------------------

                    "QYY             " FLOW TERMS FOR TIME STEP 47, STRESS PERIOD  4 READ UNFORMATTED ON UNIT 10
                    --------------------------------------------------------------------------------------------

                    "QZZ             " FLOW TERMS FOR TIME STEP 47, STRESS PERIOD  4 READ UNFORMATTED ON UNIT 10
                    --------------------------------------------------------------------------------------------

                    "STO             " FLOW TERMS FOR TIME STEP 47, STRESS PERIOD  4 READ UNFORMATTED ON UNIT 10
                    --------------------------------------------------------------------------------------------

 MAXIMUM STEPSIZE DURING WHICH ANY PARTICLE CANNOT MOVE MORE THAN ONE CELL
 =  601.4    (WHEN MIN. R.F.=1)  AT K=   2, I=   5, J=   5

 MAXIMUM STEPSIZE WHICH MEETS STABILITY CRITERION OF THE ADVECTION TERM
 (FOR PURE FINITE-DIFFERENCE OPTION, MIXELM=0) 
 =  189.5    (WHEN MIN. R.F.=1)  AT K=   2, I=   5, J=   5

                    "CNH             " FLOW TERMS FOR TIME STEP 47, STRESS PERIOD  4 READ UNFORMATTED ON UNIT 10
                    --------------------------------------------------------------------------------------------

                    "WEL             " FLOW TERMS FOR TIME STEP 47, STRESS PERIOD  4 READ UNFORMATTED ON UNIT 10
                    --------------------------------------------------------------------------------------------

                    "GHB             " FLOW TERMS FOR TIME STEP 47, STRESS PERIOD  4 READ UNFORMATTED ON UNIT 10
                    --------------------------------------------------------------------------------------------


 TOTAL NUMBER OF POINT SOURCES/SINKS PRESENT IN THE FLOW MODEL =    41

 MAXIMUM STEPSIZE WHICH MEETS STABILITY CRITERION OF THE SINK & SOURCE TERM
 =  128.6    (WHEN MIN. R.F.=1)  AT K=   1, I=   5, J=   5

 MAXIMUM STEPSIZE WHICH MEETS STABILITY CRITERION OF THE DISPERSION TERM
 =  384.4    (WHEN MIN. R.F.=1)  AT K=   1, I=   5, J=   5


     1 CALLS TO GCG PACKAGE FOR TRANSPORT TIME STEP   1 IN FLOW TIME STEP  47 STRESS PERIOD   4
     2 TOTAL ITERATIONS
  MAXIMUM CONCENTRATION CHANGES FOR EACH ITERATION:
  MAX. CHANGE LAYER,ROW,COL MAX. CHANGE LAYER,ROW,COL MAX. CHANGE LAYER,ROW,COL MAX. CHANGE LAYER,ROW,COL MAX. CHANGE LAYER,ROW,COL
 ------------------------------------------------------------------------------------------------------------------------------------
   0.1260E-02 (  1,  5,  5)  0.3553E-14 (  1,  2,  7)


                                          ================================================
                                                         TIME STEP NO.  048
                                          ================================================

 FROM TIME =   248.00     TO    249.00    


                    "THKSAT          " FLOW TERMS FOR TIME STEP 48, STRESS PERIOD  4 READ UNFORMATTED ON UNIT 10
                    --------------------------------------------------------------------------------------------

                    "QXX             " FLOW TERMS FOR TIME STEP 48, STRESS PERIOD  4 READ UNFORMATTED ON UNIT 10
                    --------------------------------------------------------------------------------------------

                    "QYY             " FLOW TERMS FOR TIME STEP 48, STRESS PERIOD  4 READ UNFORMATTED ON UNIT 10
                    --------------------------------------------------------------------------------------------

                    "QZZ             " FLOW TERMS FOR TIME STEP 48, STRESS PERIOD  4 READ UNFORMATTED ON UNIT 10
                    --------------------------------------------------------------------------------------------

                    "STO             " FLOW TERMS FOR TIME STEP 48, STRESS PERIOD  4 READ UNFORMATTED ON UNIT 10
                    --------------------------------------------------------------------------------------------

 MAXIMUM STEPSIZE DURING WHICH ANY PARTICLE CANNOT MOVE MORE THAN ONE CELL
 =  601.4    (WHEN MIN. R.F.=1)  AT K=   2, I=   5, J=   5

 MAXIMUM STEPSIZE WHICH MEETS STABILITY CRITERION OF THE ADVECTION TERM
 (FOR PURE FINITE-DIFFERENCE OPTION, MIXELM=0) 
 =  189.4    (WHEN MIN. R.F.=1)  AT K=   2, I=   5, J=   5

                    "CNH             " FLOW TERMS FOR TIME STEP 48, STRESS PERIOD  4 READ UNFORMATTED ON UNIT 10
                    --------------------------------------------------------------------------------------------

                    "WEL             " FLOW TERMS FOR TIME STEP 48, STRESS PERIOD  4 READ UNFORMATTED ON UNIT 10
                    --------------------------------------------------------------------------------------------

                    "GHB             " FLOW TERMS FOR TIME STEP 48, STRESS PERIOD  4 READ UNFORMATTED ON UNIT 10
                    --------------------------------------------------------------------------------------------


 TOTAL NUMBER OF POINT SOURCES/SINKS PRESENT IN THE FLOW MODEL =    41

 MAXIMUM STEPSIZE WHICH MEETS STABILITY CRITERION OF THE SINK & SOURCE TERM
 =  128.6    (WHEN MIN. R.F.=1)  AT K=   1, I=   5, J=   5

 MAXIMUM STEPSIZE WHICH MEETS STABILITY CRITERION OF THE DISPERSION TERM
 =  384.4    (WHEN MIN. R.F.=1)  AT K=   1, I=   5, J=   5


     1 CALLS TO GCG PACKAGE FOR TRANSPORT TIME STEP   1 IN FLOW TIME STEP  48 STRESS PERIOD   4
     2 TOTAL ITERATIONS
  MAXIMUM CONCENTRATION CHANGES FOR EACH ITERATION:
  MAX. CHANGE LAYER,ROW,COL MAX. CHANGE LAYER,ROW,COL MAX. CHANGE LAYER,ROW,COL MAX. CHANGE LAYER,ROW,COL MAX. CHANGE LAYER,ROW,COL
 ------------------------------------------------------------------------------------------------------------------------------------
   0.1247E-02 (  1,  5,  5)  0.3553E-14 (  1,  2,  7)


                                          ================================================
                                                         TIME STEP NO.  049
                                          ================================================

 FROM TIME =   249.00     TO    250.00    


                    "THKSAT          " FLOW TERMS FOR TIME STEP 49, STRESS PERIOD  4 READ UNFORMATTED ON UNIT 10
                    --------------------------------------------------------------------------------------------

                    "QXX             " FLOW TERMS FOR TIME STEP 49, STRESS PERIOD  4 READ UNFORMATTED ON UNIT 10
                    --------------------------------------------------------------------------------------------

                    "QYY             " FLOW TERMS FOR TIME STEP 49, STRESS PERIOD  4 READ UNFORMATTED ON UNIT 10
                    --------------------------------------------------------------------------------------------

                    "QZZ             " FLOW TERMS FOR TIME STEP 49, STRESS PERIOD  4 READ UNFORMATTED ON UNIT 10
                    --------------------------------------------------------------------------------------------

                    "STO             " FLOW TERMS FOR TIME STEP 49, STRESS PERIOD  4 READ UNFORMATTED ON UNIT 10
                    --------------------------------------------------------------------------------------------

 MAXIMUM STEPSIZE DURING WHICH ANY PARTICLE CANNOT MOVE MORE THAN ONE CELL
 =  601.4    (WHEN MIN. R.F.=1)  AT K=   2, I=   5, J=   5

 MAXIMUM STEPSIZE WHICH MEETS STABILITY CRITERION OF THE ADVECTION TERM
 (FOR PURE FINITE-DIFFERENCE OPTION, MIXELM=0) 
 =  189.4    (WHEN MIN. R.F.=1)  AT K=   2, I=   5, J=   5

                    "CNH             " FLOW TERMS FOR TIME STEP 49, STRESS PERIOD  4 READ UNFORMATTED ON UNIT 10
                    --------------------------------------------------------------------------------------------

                    "WEL             " FLOW TERMS FOR TIME STEP 49, STRESS PERIOD  4 READ UNFORMATTED ON UNIT 10
                    --------------------------------------------------------------------------------------------

                    "GHB             " FLOW TERMS FOR TIME STEP 49, STRESS PERIOD  4 READ UNFORMATTED ON UNIT 10
                    --------------------------------------------------------------------------------------------


 TOTAL NUMBER OF POINT SOURCES/SINKS PRESENT IN THE FLOW MODEL =    41

 MAXIMUM STEPSIZE WHICH MEETS STABILITY CRITERION OF THE SINK & SOURCE TERM
 =  128.6    (WHEN MIN. R.F.=1)  AT K=   1, I=   5, J=   5

 MAXIMUM STEPSIZE WHICH MEETS STABILITY CRITERION OF THE DISPERSION TERM
 =  384.4    (WHEN MIN. R.F.=1)  AT K=   1, I=   5, J=   5


     1 CALLS TO GCG PACKAGE FOR TRANSPORT TIME STEP   1 IN FLOW TIME STEP  49 STRESS PERIOD   4
     2 TOTAL ITERATIONS
  MAXIMUM CONCENTRATION CHANGES FOR EACH ITERATION:
  MAX. CHANGE LAYER,ROW,COL MAX. CHANGE LAYER,ROW,COL MAX. CHANGE LAYER,ROW,COL MAX. CHANGE LAYER,ROW,COL MAX. CHANGE LAYER,ROW,COL
 ------------------------------------------------------------------------------------------------------------------------------------
   0.1235E-02 (  1,  5,  5)  0.3553E-14 (  1,  2,  7)


                                          ================================================
                                                         TIME STEP NO.  050
                                          ================================================

 FROM TIME =   250.00     TO    251.00    


                    "THKSAT          " FLOW TERMS FOR TIME STEP 50, STRESS PERIOD  4 READ UNFORMATTED ON UNIT 10
                    --------------------------------------------------------------------------------------------

                    "QXX             " FLOW TERMS FOR TIME STEP 50, STRESS PERIOD  4 READ UNFORMATTED ON UNIT 10
                    --------------------------------------------------------------------------------------------

                    "QYY             " FLOW TERMS FOR TIME STEP 50, STRESS PERIOD  4 READ UNFORMATTED ON UNIT 10
                    --------------------------------------------------------------------------------------------

                    "QZZ             " FLOW TERMS FOR TIME STEP 50, STRESS PERIOD  4 READ UNFORMATTED ON UNIT 10
                    --------------------------------------------------------------------------------------------

                    "STO             " FLOW TERMS FOR TIME STEP 50, STRESS PERIOD  4 READ UNFORMATTED ON UNIT 10
                    --------------------------------------------------------------------------------------------

 MAXIMUM STEPSIZE DURING WHICH ANY PARTICLE CANNOT MOVE MORE THAN ONE CELL
 =  601.4    (WHEN MIN. R.F.=1)  AT K=   2, I=   5, J=   5

 MAXIMUM STEPSIZE WHICH MEETS STABILITY CRITERION OF THE ADVECTION TERM
 (FOR PURE FINITE-DIFFERENCE OPTION, MIXELM=0) 
 =  189.4    (WHEN MIN. R.F.=1)  AT K=   2, I=   5, J=   5

                    "CNH             " FLOW TERMS FOR TIME STEP 50, STRESS PERIOD  4 READ UNFORMATTED ON UNIT 10
                    --------------------------------------------------------------------------------------------

                    "WEL             " FLOW TERMS FOR TIME STEP 50, STRESS PERIOD  4 READ UNFORMATTED ON UNIT 10
                    --------------------------------------------------------------------------------------------

                    "GHB             " FLOW TERMS FOR TIME STEP 50, STRESS PERIOD  4 READ UNFORMATTED ON UNIT 10
                    --------------------------------------------------------------------------------------------


 TOTAL NUMBER OF POINT SOURCES/SINKS PRESENT IN THE FLOW MODEL =    41

 MAXIMUM STEPSIZE WHICH MEETS STABILITY CRITERION OF THE SINK & SOURCE TERM
 =  128.6    (WHEN MIN. R.F.=1)  AT K=   1, I=   5, J=   5

 MAXIMUM STEPSIZE WHICH MEETS STABILITY CRITERION OF THE DISPERSION TERM
 =  384.4    (WHEN MIN. R.F.=1)  AT K=   1, I=   5, J=   5


     1 CALLS TO GCG PACKAGE FOR TRANSPORT TIME STEP   1 IN FLOW TIME STEP  50 STRESS PERIOD   4
     2 TOTAL ITERATIONS
  MAXIMUM CONCENTRATION CHANGES FOR EACH ITERATION:
  MAX. CHANGE LAYER,ROW,COL MAX. CHANGE LAYER,ROW,COL MAX. CHANGE LAYER,ROW,COL MAX. CHANGE LAYER,ROW,COL MAX. CHANGE LAYER,ROW,COL
 ------------------------------------------------------------------------------------------------------------------------------------
   0.1222E-02 (  1,  5,  5)  0.3553E-14 (  1,  2,  7)


                                          ================================================
                                                         TIME STEP NO.  051
                                          ================================================

 FROM TIME =   251.00     TO    252.00    


                    "THKSAT          " FLOW TERMS FOR TIME STEP 51, STRESS PERIOD  4 READ UNFORMATTED ON UNIT 10
                    --------------------------------------------------------------------------------------------

                    "QXX             " FLOW TERMS FOR TIME STEP 51, STRESS PERIOD  4 READ UNFORMATTED ON UNIT 10
                    --------------------------------------------------------------------------------------------

                    "QYY             " FLOW TERMS FOR TIME STEP 51, STRESS PERIOD  4 READ UNFORMATTED ON UNIT 10
                    --------------------------------------------------------------------------------------------

                    "QZZ             " FLOW TERMS FOR TIME STEP 51, STRESS PERIOD  4 READ UNFORMATTED ON UNIT 10
                    --------------------------------------------------------------------------------------------

                    "STO             " FLOW TERMS FOR TIME STEP 51, STRESS PERIOD  4 READ UNFORMATTED ON UNIT 10
                    --------------------------------------------------------------------------------------------

 MAXIMUM STEPSIZE DURING WHICH ANY PARTICLE CANNOT MOVE MORE THAN ONE CELL
 =  601.4    (WHEN MIN. R.F.=1)  AT K=   2, I=   5, J=   5

 MAXIMUM STEPSIZE WHICH MEETS STABILITY CRITERION OF THE ADVECTION TERM
 (FOR PURE FINITE-DIFFERENCE OPTION, MIXELM=0) 
 =  189.4    (WHEN MIN. R.F.=1)  AT K=   2, I=   5, J=   5

                    "CNH             " FLOW TERMS FOR TIME STEP 51, STRESS PERIOD  4 READ UNFORMATTED ON UNIT 10
                    --------------------------------------------------------------------------------------------

                    "WEL             " FLOW TERMS FOR TIME STEP 51, STRESS PERIOD  4 READ UNFORMATTED ON UNIT 10
                    --------------------------------------------------------------------------------------------

                    "GHB             " FLOW TERMS FOR TIME STEP 51, STRESS PERIOD  4 READ UNFORMATTED ON UNIT 10
                    --------------------------------------------------------------------------------------------


 TOTAL NUMBER OF POINT SOURCES/SINKS PRESENT IN THE FLOW MODEL =    41

 MAXIMUM STEPSIZE WHICH MEETS STABILITY CRITERION OF THE SINK & SOURCE TERM
 =  128.6    (WHEN MIN. R.F.=1)  AT K=   1, I=   5, J=   5

 MAXIMUM STEPSIZE WHICH MEETS STABILITY CRITERION OF THE DISPERSION TERM
 =  384.4    (WHEN MIN. R.F.=1)  AT K=   1, I=   5, J=   5


     1 CALLS TO GCG PACKAGE FOR TRANSPORT TIME STEP   1 IN FLOW TIME STEP  51 STRESS PERIOD   4
     2 TOTAL ITERATIONS
  MAXIMUM CONCENTRATION CHANGES FOR EACH ITERATION:
  MAX. CHANGE LAYER,ROW,COL MAX. CHANGE LAYER,ROW,COL MAX. CHANGE LAYER,ROW,COL MAX. CHANGE LAYER,ROW,COL MAX. CHANGE LAYER,ROW,COL
 ------------------------------------------------------------------------------------------------------------------------------------
   0.1210E-02 (  1,  5,  5)  0.3553E-14 (  1,  2,  7)


                                          ================================================
                                                         TIME STEP NO.  052
                                          ================================================

 FROM TIME =   252.00     TO    253.00    


                    "THKSAT          " FLOW TERMS FOR TIME STEP 52, STRESS PERIOD  4 READ UNFORMATTED ON UNIT 10
                    --------------------------------------------------------------------------------------------

                    "QXX             " FLOW TERMS FOR TIME STEP 52, STRESS PERIOD  4 READ UNFORMATTED ON UNIT 10
                    --------------------------------------------------------------------------------------------

                    "QYY             " FLOW TERMS FOR TIME STEP 52, STRESS PERIOD  4 READ UNFORMATTED ON UNIT 10
                    --------------------------------------------------------------------------------------------

                    "QZZ             " FLOW TERMS FOR TIME STEP 52, STRESS PERIOD  4 READ UNFORMATTED ON UNIT 10
                    --------------------------------------------------------------------------------------------

                    "STO             " FLOW TERMS FOR TIME STEP 52, STRESS PERIOD  4 READ UNFORMATTED ON UNIT 10
                    --------------------------------------------------------------------------------------------

 MAXIMUM STEPSIZE DURING WHICH ANY PARTICLE CANNOT MOVE MORE THAN ONE CELL
 =  601.4    (WHEN MIN. R.F.=1)  AT K=   2, I=   5, J=   5

 MAXIMUM STEPSIZE WHICH MEETS STABILITY CRITERION OF THE ADVECTION TERM
 (FOR PURE FINITE-DIFFERENCE OPTION, MIXELM=0) 
 =  189.4    (WHEN MIN. R.F.=1)  AT K=   2, I=   5, J=   5

                    "CNH             " FLOW TERMS FOR TIME STEP 52, STRESS PERIOD  4 READ UNFORMATTED ON UNIT 10
                    --------------------------------------------------------------------------------------------

                    "WEL             " FLOW TERMS FOR TIME STEP 52, STRESS PERIOD  4 READ UNFORMATTED ON UNIT 10
                    --------------------------------------------------------------------------------------------

                    "GHB             " FLOW TERMS FOR TIME STEP 52, STRESS PERIOD  4 READ UNFORMATTED ON UNIT 10
                    --------------------------------------------------------------------------------------------


 TOTAL NUMBER OF POINT SOURCES/SINKS PRESENT IN THE FLOW MODEL =    41

 MAXIMUM STEPSIZE WHICH MEETS STABILITY CRITERION OF THE SINK & SOURCE TERM
 =  128.6    (WHEN MIN. R.F.=1)  AT K=   1, I=   5, J=   5

 MAXIMUM STEPSIZE WHICH MEETS STABILITY CRITERION OF THE DISPERSION TERM
 =  384.4    (WHEN MIN. R.F.=1)  AT K=   1, I=   5, J=   5


     1 CALLS TO GCG PACKAGE FOR TRANSPORT TIME STEP   1 IN FLOW TIME STEP  52 STRESS PERIOD   4
     2 TOTAL ITERATIONS
  MAXIMUM CONCENTRATION CHANGES FOR EACH ITERATION:
  MAX. CHANGE LAYER,ROW,COL MAX. CHANGE LAYER,ROW,COL MAX. CHANGE LAYER,ROW,COL MAX. CHANGE LAYER,ROW,COL MAX. CHANGE LAYER,ROW,COL
 ------------------------------------------------------------------------------------------------------------------------------------
   0.1197E-02 (  1,  5,  5)  0.3553E-14 (  1,  2,  7)


                                          ================================================
                                                         TIME STEP NO.  053
                                          ================================================

 FROM TIME =   253.00     TO    254.00    


                    "THKSAT          " FLOW TERMS FOR TIME STEP 53, STRESS PERIOD  4 READ UNFORMATTED ON UNIT 10
                    --------------------------------------------------------------------------------------------

                    "QXX             " FLOW TERMS FOR TIME STEP 53, STRESS PERIOD  4 READ UNFORMATTED ON UNIT 10
                    --------------------------------------------------------------------------------------------

                    "QYY             " FLOW TERMS FOR TIME STEP 53, STRESS PERIOD  4 READ UNFORMATTED ON UNIT 10
                    --------------------------------------------------------------------------------------------

                    "QZZ             " FLOW TERMS FOR TIME STEP 53, STRESS PERIOD  4 READ UNFORMATTED ON UNIT 10
                    --------------------------------------------------------------------------------------------

                    "STO             " FLOW TERMS FOR TIME STEP 53, STRESS PERIOD  4 READ UNFORMATTED ON UNIT 10
                    --------------------------------------------------------------------------------------------

 MAXIMUM STEPSIZE DURING WHICH ANY PARTICLE CANNOT MOVE MORE THAN ONE CELL
 =  601.4    (WHEN MIN. R.F.=1)  AT K=   2, I=   5, J=   5

 MAXIMUM STEPSIZE WHICH MEETS STABILITY CRITERION OF THE ADVECTION TERM
 (FOR PURE FINITE-DIFFERENCE OPTION, MIXELM=0) 
 =  189.3    (WHEN MIN. R.F.=1)  AT K=   2, I=   5, J=   5

                    "CNH             " FLOW TERMS FOR TIME STEP 53, STRESS PERIOD  4 READ UNFORMATTED ON UNIT 10
                    --------------------------------------------------------------------------------------------

                    "WEL             " FLOW TERMS FOR TIME STEP 53, STRESS PERIOD  4 READ UNFORMATTED ON UNIT 10
                    --------------------------------------------------------------------------------------------

                    "GHB             " FLOW TERMS FOR TIME STEP 53, STRESS PERIOD  4 READ UNFORMATTED ON UNIT 10
                    --------------------------------------------------------------------------------------------


 TOTAL NUMBER OF POINT SOURCES/SINKS PRESENT IN THE FLOW MODEL =    41

 MAXIMUM STEPSIZE WHICH MEETS STABILITY CRITERION OF THE SINK & SOURCE TERM
 =  128.6    (WHEN MIN. R.F.=1)  AT K=   1, I=   5, J=   5

 MAXIMUM STEPSIZE WHICH MEETS STABILITY CRITERION OF THE DISPERSION TERM
 =  384.5    (WHEN MIN. R.F.=1)  AT K=   1, I=   5, J=   5


     1 CALLS TO GCG PACKAGE FOR TRANSPORT TIME STEP   1 IN FLOW TIME STEP  53 STRESS PERIOD   4
     2 TOTAL ITERATIONS
  MAXIMUM CONCENTRATION CHANGES FOR EACH ITERATION:
  MAX. CHANGE LAYER,ROW,COL MAX. CHANGE LAYER,ROW,COL MAX. CHANGE LAYER,ROW,COL MAX. CHANGE LAYER,ROW,COL MAX. CHANGE LAYER,ROW,COL
 ------------------------------------------------------------------------------------------------------------------------------------
   0.1185E-02 (  1,  5,  5)  0.3553E-14 (  1,  2,  7)


                                          ================================================
                                                         TIME STEP NO.  054
                                          ================================================

 FROM TIME =   254.00     TO    255.00    


                    "THKSAT          " FLOW TERMS FOR TIME STEP 54, STRESS PERIOD  4 READ UNFORMATTED ON UNIT 10
                    --------------------------------------------------------------------------------------------

                    "QXX             " FLOW TERMS FOR TIME STEP 54, STRESS PERIOD  4 READ UNFORMATTED ON UNIT 10
                    --------------------------------------------------------------------------------------------

                    "QYY             " FLOW TERMS FOR TIME STEP 54, STRESS PERIOD  4 READ UNFORMATTED ON UNIT 10
                    --------------------------------------------------------------------------------------------

                    "QZZ             " FLOW TERMS FOR TIME STEP 54, STRESS PERIOD  4 READ UNFORMATTED ON UNIT 10
                    --------------------------------------------------------------------------------------------

                    "STO             " FLOW TERMS FOR TIME STEP 54, STRESS PERIOD  4 READ UNFORMATTED ON UNIT 10
                    --------------------------------------------------------------------------------------------

 MAXIMUM STEPSIZE DURING WHICH ANY PARTICLE CANNOT MOVE MORE THAN ONE CELL
 =  601.4    (WHEN MIN. R.F.=1)  AT K=   2, I=   5, J=   5

 MAXIMUM STEPSIZE WHICH MEETS STABILITY CRITERION OF THE ADVECTION TERM
 (FOR PURE FINITE-DIFFERENCE OPTION, MIXELM=0) 
 =  189.3    (WHEN MIN. R.F.=1)  AT K=   2, I=   5, J=   5

                    "CNH             " FLOW TERMS FOR TIME STEP 54, STRESS PERIOD  4 READ UNFORMATTED ON UNIT 10
                    --------------------------------------------------------------------------------------------

                    "WEL             " FLOW TERMS FOR TIME STEP 54, STRESS PERIOD  4 READ UNFORMATTED ON UNIT 10
                    --------------------------------------------------------------------------------------------

                    "GHB             " FLOW TERMS FOR TIME STEP 54, STRESS PERIOD  4 READ UNFORMATTED ON UNIT 10
                    --------------------------------------------------------------------------------------------


 TOTAL NUMBER OF POINT SOURCES/SINKS PRESENT IN THE FLOW MODEL =    41

 MAXIMUM STEPSIZE WHICH MEETS STABILITY CRITERION OF THE SINK & SOURCE TERM
 =  128.6    (WHEN MIN. R.F.=1)  AT K=   1, I=   5, J=   5

 MAXIMUM STEPSIZE WHICH MEETS STABILITY CRITERION OF THE DISPERSION TERM
 =  384.5    (WHEN MIN. R.F.=1)  AT K=   1, I=   5, J=   5


     1 CALLS TO GCG PACKAGE FOR TRANSPORT TIME STEP   1 IN FLOW TIME STEP  54 STRESS PERIOD   4
     2 TOTAL ITERATIONS
  MAXIMUM CONCENTRATION CHANGES FOR EACH ITERATION:
  MAX. CHANGE LAYER,ROW,COL MAX. CHANGE LAYER,ROW,COL MAX. CHANGE LAYER,ROW,COL MAX. CHANGE LAYER,ROW,COL MAX. CHANGE LAYER,ROW,COL
 ------------------------------------------------------------------------------------------------------------------------------------
   0.1173E-02 (  1,  5,  5)  0.3553E-14 (  1,  2,  7)


                                          ================================================
                                                         TIME STEP NO.  055
                                          ================================================

 FROM TIME =   255.00     TO    256.00    


                    "THKSAT          " FLOW TERMS FOR TIME STEP 55, STRESS PERIOD  4 READ UNFORMATTED ON UNIT 10
                    --------------------------------------------------------------------------------------------

                    "QXX             " FLOW TERMS FOR TIME STEP 55, STRESS PERIOD  4 READ UNFORMATTED ON UNIT 10
                    --------------------------------------------------------------------------------------------

                    "QYY             " FLOW TERMS FOR TIME STEP 55, STRESS PERIOD  4 READ UNFORMATTED ON UNIT 10
                    --------------------------------------------------------------------------------------------

                    "QZZ             " FLOW TERMS FOR TIME STEP 55, STRESS PERIOD  4 READ UNFORMATTED ON UNIT 10
                    --------------------------------------------------------------------------------------------

                    "STO             " FLOW TERMS FOR TIME STEP 55, STRESS PERIOD  4 READ UNFORMATTED ON UNIT 10
                    --------------------------------------------------------------------------------------------

 MAXIMUM STEPSIZE DURING WHICH ANY PARTICLE CANNOT MOVE MORE THAN ONE CELL
 =  601.4    (WHEN MIN. R.F.=1)  AT K=   2, I=   5, J=   5

 MAXIMUM STEPSIZE WHICH MEETS STABILITY CRITERION OF THE ADVECTION TERM
 (FOR PURE FINITE-DIFFERENCE OPTION, MIXELM=0) 
 =  189.3    (WHEN MIN. R.F.=1)  AT K=   2, I=   5, J=   5

                    "CNH             " FLOW TERMS FOR TIME STEP 55, STRESS PERIOD  4 READ UNFORMATTED ON UNIT 10
                    --------------------------------------------------------------------------------------------

                    "WEL             " FLOW TERMS FOR TIME STEP 55, STRESS PERIOD  4 READ UNFORMATTED ON UNIT 10
                    --------------------------------------------------------------------------------------------

                    "GHB             " FLOW TERMS FOR TIME STEP 55, STRESS PERIOD  4 READ UNFORMATTED ON UNIT 10
                    --------------------------------------------------------------------------------------------


 TOTAL NUMBER OF POINT SOURCES/SINKS PRESENT IN THE FLOW MODEL =    41

 MAXIMUM STEPSIZE WHICH MEETS STABILITY CRITERION OF THE SINK & SOURCE TERM
 =  128.6    (WHEN MIN. R.F.=1)  AT K=   1, I=   5, J=   5

 MAXIMUM STEPSIZE WHICH MEETS STABILITY CRITERION OF THE DISPERSION TERM
 =  384.5    (WHEN MIN. R.F.=1)  AT K=   1, I=   5, J=   5


     1 CALLS TO GCG PACKAGE FOR TRANSPORT TIME STEP   1 IN FLOW TIME STEP  55 STRESS PERIOD   4
     2 TOTAL ITERATIONS
  MAXIMUM CONCENTRATION CHANGES FOR EACH ITERATION:
  MAX. CHANGE LAYER,ROW,COL MAX. CHANGE LAYER,ROW,COL MAX. CHANGE LAYER,ROW,COL MAX. CHANGE LAYER,ROW,COL MAX. CHANGE LAYER,ROW,COL
 ------------------------------------------------------------------------------------------------------------------------------------
   0.1161E-02 (  1,  5,  5)  0.3553E-14 (  1,  2,  7)


                                          ================================================
                                                         TIME STEP NO.  056
                                          ================================================

 FROM TIME =   256.00     TO    257.00    


                    "THKSAT          " FLOW TERMS FOR TIME STEP 56, STRESS PERIOD  4 READ UNFORMATTED ON UNIT 10
                    --------------------------------------------------------------------------------------------

                    "QXX             " FLOW TERMS FOR TIME STEP 56, STRESS PERIOD  4 READ UNFORMATTED ON UNIT 10
                    --------------------------------------------------------------------------------------------

                    "QYY             " FLOW TERMS FOR TIME STEP 56, STRESS PERIOD  4 READ UNFORMATTED ON UNIT 10
                    --------------------------------------------------------------------------------------------

                    "QZZ             " FLOW TERMS FOR TIME STEP 56, STRESS PERIOD  4 READ UNFORMATTED ON UNIT 10
                    --------------------------------------------------------------------------------------------

                    "STO             " FLOW TERMS FOR TIME STEP 56, STRESS PERIOD  4 READ UNFORMATTED ON UNIT 10
                    --------------------------------------------------------------------------------------------

 MAXIMUM STEPSIZE DURING WHICH ANY PARTICLE CANNOT MOVE MORE THAN ONE CELL
 =  601.3    (WHEN MIN. R.F.=1)  AT K=   2, I=   5, J=   5

 MAXIMUM STEPSIZE WHICH MEETS STABILITY CRITERION OF THE ADVECTION TERM
 (FOR PURE FINITE-DIFFERENCE OPTION, MIXELM=0) 
 =  189.3    (WHEN MIN. R.F.=1)  AT K=   2, I=   5, J=   5

                    "CNH             " FLOW TERMS FOR TIME STEP 56, STRESS PERIOD  4 READ UNFORMATTED ON UNIT 10
                    --------------------------------------------------------------------------------------------

                    "WEL             " FLOW TERMS FOR TIME STEP 56, STRESS PERIOD  4 READ UNFORMATTED ON UNIT 10
                    --------------------------------------------------------------------------------------------

                    "GHB             " FLOW TERMS FOR TIME STEP 56, STRESS PERIOD  4 READ UNFORMATTED ON UNIT 10
                    --------------------------------------------------------------------------------------------


 TOTAL NUMBER OF POINT SOURCES/SINKS PRESENT IN THE FLOW MODEL =    41

 MAXIMUM STEPSIZE WHICH MEETS STABILITY CRITERION OF THE SINK & SOURCE TERM
 =  128.6    (WHEN MIN. R.F.=1)  AT K=   1, I=   5, J=   5

 MAXIMUM STEPSIZE WHICH MEETS STABILITY CRITERION OF THE DISPERSION TERM
 =  384.5    (WHEN MIN. R.F.=1)  AT K=   1, I=   5, J=   5


     1 CALLS TO GCG PACKAGE FOR TRANSPORT TIME STEP   1 IN FLOW TIME STEP  56 STRESS PERIOD   4
     2 TOTAL ITERATIONS
  MAXIMUM CONCENTRATION CHANGES FOR EACH ITERATION:
  MAX. CHANGE LAYER,ROW,COL MAX. CHANGE LAYER,ROW,COL MAX. CHANGE LAYER,ROW,COL MAX. CHANGE LAYER,ROW,COL MAX. CHANGE LAYER,ROW,COL
 ------------------------------------------------------------------------------------------------------------------------------------
   0.1150E-02 (  1,  5,  5)  0.3553E-14 (  1,  2,  7)


                                          ================================================
                                                         TIME STEP NO.  057
                                          ================================================

 FROM TIME =   257.00     TO    258.00    


                    "THKSAT          " FLOW TERMS FOR TIME STEP 57, STRESS PERIOD  4 READ UNFORMATTED ON UNIT 10
                    --------------------------------------------------------------------------------------------

                    "QXX             " FLOW TERMS FOR TIME STEP 57, STRESS PERIOD  4 READ UNFORMATTED ON UNIT 10
                    --------------------------------------------------------------------------------------------

                    "QYY             " FLOW TERMS FOR TIME STEP 57, STRESS PERIOD  4 READ UNFORMATTED ON UNIT 10
                    --------------------------------------------------------------------------------------------

                    "QZZ             " FLOW TERMS FOR TIME STEP 57, STRESS PERIOD  4 READ UNFORMATTED ON UNIT 10
                    --------------------------------------------------------------------------------------------

                    "STO             " FLOW TERMS FOR TIME STEP 57, STRESS PERIOD  4 READ UNFORMATTED ON UNIT 10
                    --------------------------------------------------------------------------------------------

 MAXIMUM STEPSIZE DURING WHICH ANY PARTICLE CANNOT MOVE MORE THAN ONE CELL
 =  601.3    (WHEN MIN. R.F.=1)  AT K=   2, I=   5, J=   5

 MAXIMUM STEPSIZE WHICH MEETS STABILITY CRITERION OF THE ADVECTION TERM
 (FOR PURE FINITE-DIFFERENCE OPTION, MIXELM=0) 
 =  189.3    (WHEN MIN. R.F.=1)  AT K=   2, I=   5, J=   5

                    "CNH             " FLOW TERMS FOR TIME STEP 57, STRESS PERIOD  4 READ UNFORMATTED ON UNIT 10
                    --------------------------------------------------------------------------------------------

                    "WEL             " FLOW TERMS FOR TIME STEP 57, STRESS PERIOD  4 READ UNFORMATTED ON UNIT 10
                    --------------------------------------------------------------------------------------------

                    "GHB             " FLOW TERMS FOR TIME STEP 57, STRESS PERIOD  4 READ UNFORMATTED ON UNIT 10
                    --------------------------------------------------------------------------------------------


 TOTAL NUMBER OF POINT SOURCES/SINKS PRESENT IN THE FLOW MODEL =    41

 MAXIMUM STEPSIZE WHICH MEETS STABILITY CRITERION OF THE SINK & SOURCE TERM
 =  128.6    (WHEN MIN. R.F.=1)  AT K=   1, I=   5, J=   5

 MAXIMUM STEPSIZE WHICH MEETS STABILITY CRITERION OF THE DISPERSION TERM
 =  384.5    (WHEN MIN. R.F.=1)  AT K=   1, I=   5, J=   5


     1 CALLS TO GCG PACKAGE FOR TRANSPORT TIME STEP   1 IN FLOW TIME STEP  57 STRESS PERIOD   4
     2 TOTAL ITERATIONS
  MAXIMUM CONCENTRATION CHANGES FOR EACH ITERATION:
  MAX. CHANGE LAYER,ROW,COL MAX. CHANGE LAYER,ROW,COL MAX. CHANGE LAYER,ROW,COL MAX. CHANGE LAYER,ROW,COL MAX. CHANGE LAYER,ROW,COL
 ------------------------------------------------------------------------------------------------------------------------------------
   0.1140E-02 (  1,  5,  5)  0.3553E-14 (  1,  2,  7)


                                          ================================================
                                                         TIME STEP NO.  058
                                          ================================================

 FROM TIME =   258.00     TO    259.00    


                    "THKSAT          " FLOW TERMS FOR TIME STEP 58, STRESS PERIOD  4 READ UNFORMATTED ON UNIT 10
                    --------------------------------------------------------------------------------------------

                    "QXX             " FLOW TERMS FOR TIME STEP 58, STRESS PERIOD  4 READ UNFORMATTED ON UNIT 10
                    --------------------------------------------------------------------------------------------

                    "QYY             " FLOW TERMS FOR TIME STEP 58, STRESS PERIOD  4 READ UNFORMATTED ON UNIT 10
                    --------------------------------------------------------------------------------------------

                    "QZZ             " FLOW TERMS FOR TIME STEP 58, STRESS PERIOD  4 READ UNFORMATTED ON UNIT 10
                    --------------------------------------------------------------------------------------------

                    "STO             " FLOW TERMS FOR TIME STEP 58, STRESS PERIOD  4 READ UNFORMATTED ON UNIT 10
                    --------------------------------------------------------------------------------------------

 MAXIMUM STEPSIZE DURING WHICH ANY PARTICLE CANNOT MOVE MORE THAN ONE CELL
 =  601.3    (WHEN MIN. R.F.=1)  AT K=   2, I=   5, J=   5

 MAXIMUM STEPSIZE WHICH MEETS STABILITY CRITERION OF THE ADVECTION TERM
 (FOR PURE FINITE-DIFFERENCE OPTION, MIXELM=0) 
 =  189.3    (WHEN MIN. R.F.=1)  AT K=   2, I=   5, J=   5

                    "CNH             " FLOW TERMS FOR TIME STEP 58, STRESS PERIOD  4 READ UNFORMATTED ON UNIT 10
                    --------------------------------------------------------------------------------------------

                    "WEL             " FLOW TERMS FOR TIME STEP 58, STRESS PERIOD  4 READ UNFORMATTED ON UNIT 10
                    --------------------------------------------------------------------------------------------

                    "GHB             " FLOW TERMS FOR TIME STEP 58, STRESS PERIOD  4 READ UNFORMATTED ON UNIT 10
                    --------------------------------------------------------------------------------------------


 TOTAL NUMBER OF POINT SOURCES/SINKS PRESENT IN THE FLOW MODEL =    41

 MAXIMUM STEPSIZE WHICH MEETS STABILITY CRITERION OF THE SINK & SOURCE TERM
 =  128.6    (WHEN MIN. R.F.=1)  AT K=   1, I=   5, J=   5

 MAXIMUM STEPSIZE WHICH MEETS STABILITY CRITERION OF THE DISPERSION TERM
 =  384.5    (WHEN MIN. R.F.=1)  AT K=   1, I=   5, J=   5


     1 CALLS TO GCG PACKAGE FOR TRANSPORT TIME STEP   1 IN FLOW TIME STEP  58 STRESS PERIOD   4
     2 TOTAL ITERATIONS
  MAXIMUM CONCENTRATION CHANGES FOR EACH ITERATION:
  MAX. CHANGE LAYER,ROW,COL MAX. CHANGE LAYER,ROW,COL MAX. CHANGE LAYER,ROW,COL MAX. CHANGE LAYER,ROW,COL MAX. CHANGE LAYER,ROW,COL
 ------------------------------------------------------------------------------------------------------------------------------------
   0.1130E-02 (  1,  5,  5)  0.3553E-14 (  1,  2,  7)


                                          ================================================
                                                         TIME STEP NO.  059
                                          ================================================

 FROM TIME =   259.00     TO    260.00    


                    "THKSAT          " FLOW TERMS FOR TIME STEP 59, STRESS PERIOD  4 READ UNFORMATTED ON UNIT 10
                    --------------------------------------------------------------------------------------------

                    "QXX             " FLOW TERMS FOR TIME STEP 59, STRESS PERIOD  4 READ UNFORMATTED ON UNIT 10
                    --------------------------------------------------------------------------------------------

                    "QYY             " FLOW TERMS FOR TIME STEP 59, STRESS PERIOD  4 READ UNFORMATTED ON UNIT 10
                    --------------------------------------------------------------------------------------------

                    "QZZ             " FLOW TERMS FOR TIME STEP 59, STRESS PERIOD  4 READ UNFORMATTED ON UNIT 10
                    --------------------------------------------------------------------------------------------

                    "STO             " FLOW TERMS FOR TIME STEP 59, STRESS PERIOD  4 READ UNFORMATTED ON UNIT 10
                    --------------------------------------------------------------------------------------------

 MAXIMUM STEPSIZE DURING WHICH ANY PARTICLE CANNOT MOVE MORE THAN ONE CELL
 =  601.3    (WHEN MIN. R.F.=1)  AT K=   2, I=   5, J=   5

 MAXIMUM STEPSIZE WHICH MEETS STABILITY CRITERION OF THE ADVECTION TERM
 (FOR PURE FINITE-DIFFERENCE OPTION, MIXELM=0) 
 =  189.2    (WHEN MIN. R.F.=1)  AT K=   2, I=   5, J=   5

                    "CNH             " FLOW TERMS FOR TIME STEP 59, STRESS PERIOD  4 READ UNFORMATTED ON UNIT 10
                    --------------------------------------------------------------------------------------------

                    "WEL             " FLOW TERMS FOR TIME STEP 59, STRESS PERIOD  4 READ UNFORMATTED ON UNIT 10
                    --------------------------------------------------------------------------------------------

                    "GHB             " FLOW TERMS FOR TIME STEP 59, STRESS PERIOD  4 READ UNFORMATTED ON UNIT 10
                    --------------------------------------------------------------------------------------------


 TOTAL NUMBER OF POINT SOURCES/SINKS PRESENT IN THE FLOW MODEL =    41

 MAXIMUM STEPSIZE WHICH MEETS STABILITY CRITERION OF THE SINK & SOURCE TERM
 =  128.6    (WHEN MIN. R.F.=1)  AT K=   1, I=   5, J=   5

 MAXIMUM STEPSIZE WHICH MEETS STABILITY CRITERION OF THE DISPERSION TERM
 =  384.5    (WHEN MIN. R.F.=1)  AT K=   1, I=   5, J=   5


     1 CALLS TO GCG PACKAGE FOR TRANSPORT TIME STEP   1 IN FLOW TIME STEP  59 STRESS PERIOD   4
     2 TOTAL ITERATIONS
  MAXIMUM CONCENTRATION CHANGES FOR EACH ITERATION:
  MAX. CHANGE LAYER,ROW,COL MAX. CHANGE LAYER,ROW,COL MAX. CHANGE LAYER,ROW,COL MAX. CHANGE LAYER,ROW,COL MAX. CHANGE LAYER,ROW,COL
 ------------------------------------------------------------------------------------------------------------------------------------
   0.1119E-02 (  1,  5,  5)  0.3553E-14 (  1,  2,  7)


                                          ================================================
                                                         TIME STEP NO.  060
                                          ================================================

 FROM TIME =   260.00     TO    261.00    


                    "THKSAT          " FLOW TERMS FOR TIME STEP 60, STRESS PERIOD  4 READ UNFORMATTED ON UNIT 10
                    --------------------------------------------------------------------------------------------

                    "QXX             " FLOW TERMS FOR TIME STEP 60, STRESS PERIOD  4 READ UNFORMATTED ON UNIT 10
                    --------------------------------------------------------------------------------------------

                    "QYY             " FLOW TERMS FOR TIME STEP 60, STRESS PERIOD  4 READ UNFORMATTED ON UNIT 10
                    --------------------------------------------------------------------------------------------

                    "QZZ             " FLOW TERMS FOR TIME STEP 60, STRESS PERIOD  4 READ UNFORMATTED ON UNIT 10
                    --------------------------------------------------------------------------------------------

                    "STO             " FLOW TERMS FOR TIME STEP 60, STRESS PERIOD  4 READ UNFORMATTED ON UNIT 10
                    --------------------------------------------------------------------------------------------

 MAXIMUM STEPSIZE DURING WHICH ANY PARTICLE CANNOT MOVE MORE THAN ONE CELL
 =  601.3    (WHEN MIN. R.F.=1)  AT K=   2, I=   5, J=   5

 MAXIMUM STEPSIZE WHICH MEETS STABILITY CRITERION OF THE ADVECTION TERM
 (FOR PURE FINITE-DIFFERENCE OPTION, MIXELM=0) 
 =  189.2    (WHEN MIN. R.F.=1)  AT K=   2, I=   5, J=   5

                    "CNH             " FLOW TERMS FOR TIME STEP 60, STRESS PERIOD  4 READ UNFORMATTED ON UNIT 10
                    --------------------------------------------------------------------------------------------

                    "WEL             " FLOW TERMS FOR TIME STEP 60, STRESS PERIOD  4 READ UNFORMATTED ON UNIT 10
                    --------------------------------------------------------------------------------------------

                    "GHB             " FLOW TERMS FOR TIME STEP 60, STRESS PERIOD  4 READ UNFORMATTED ON UNIT 10
                    --------------------------------------------------------------------------------------------


 TOTAL NUMBER OF POINT SOURCES/SINKS PRESENT IN THE FLOW MODEL =    41

 MAXIMUM STEPSIZE WHICH MEETS STABILITY CRITERION OF THE SINK & SOURCE TERM
 =  128.6    (WHEN MIN. R.F.=1)  AT K=   1, I=   5, J=   5

 MAXIMUM STEPSIZE WHICH MEETS STABILITY CRITERION OF THE DISPERSION TERM
 =  384.5    (WHEN MIN. R.F.=1)  AT K=   1, I=   5, J=   5


     1 CALLS TO GCG PACKAGE FOR TRANSPORT TIME STEP   1 IN FLOW TIME STEP  60 STRESS PERIOD   4
     2 TOTAL ITERATIONS
  MAXIMUM CONCENTRATION CHANGES FOR EACH ITERATION:
  MAX. CHANGE LAYER,ROW,COL MAX. CHANGE LAYER,ROW,COL MAX. CHANGE LAYER,ROW,COL MAX. CHANGE LAYER,ROW,COL MAX. CHANGE LAYER,ROW,COL
 ------------------------------------------------------------------------------------------------------------------------------------
   0.1108E-02 (  1,  5,  5)  0.3553E-14 (  1,  2,  7)


                                          ================================================
                                                         TIME STEP NO.  061
                                          ================================================

 FROM TIME =   261.00     TO    262.00    


                    "THKSAT          " FLOW TERMS FOR TIME STEP 61, STRESS PERIOD  4 READ UNFORMATTED ON UNIT 10
                    --------------------------------------------------------------------------------------------

                    "QXX             " FLOW TERMS FOR TIME STEP 61, STRESS PERIOD  4 READ UNFORMATTED ON UNIT 10
                    --------------------------------------------------------------------------------------------

                    "QYY             " FLOW TERMS FOR TIME STEP 61, STRESS PERIOD  4 READ UNFORMATTED ON UNIT 10
                    --------------------------------------------------------------------------------------------

                    "QZZ             " FLOW TERMS FOR TIME STEP 61, STRESS PERIOD  4 READ UNFORMATTED ON UNIT 10
                    --------------------------------------------------------------------------------------------

                    "STO             " FLOW TERMS FOR TIME STEP 61, STRESS PERIOD  4 READ UNFORMATTED ON UNIT 10
                    --------------------------------------------------------------------------------------------

 MAXIMUM STEPSIZE DURING WHICH ANY PARTICLE CANNOT MOVE MORE THAN ONE CELL
 =  601.3    (WHEN MIN. R.F.=1)  AT K=   2, I=   5, J=   5

 MAXIMUM STEPSIZE WHICH MEETS STABILITY CRITERION OF THE ADVECTION TERM
 (FOR PURE FINITE-DIFFERENCE OPTION, MIXELM=0) 
 =  189.2    (WHEN MIN. R.F.=1)  AT K=   2, I=   5, J=   5

                    "CNH             " FLOW TERMS FOR TIME STEP 61, STRESS PERIOD  4 READ UNFORMATTED ON UNIT 10
                    --------------------------------------------------------------------------------------------

                    "WEL             " FLOW TERMS FOR TIME STEP 61, STRESS PERIOD  4 READ UNFORMATTED ON UNIT 10
                    --------------------------------------------------------------------------------------------

                    "GHB             " FLOW TERMS FOR TIME STEP 61, STRESS PERIOD  4 READ UNFORMATTED ON UNIT 10
                    --------------------------------------------------------------------------------------------


 TOTAL NUMBER OF POINT SOURCES/SINKS PRESENT IN THE FLOW MODEL =    41

 MAXIMUM STEPSIZE WHICH MEETS STABILITY CRITERION OF THE SINK & SOURCE TERM
 =  128.6    (WHEN MIN. R.F.=1)  AT K=   1, I=   5, J=   5

 MAXIMUM STEPSIZE WHICH MEETS STABILITY CRITERION OF THE DISPERSION TERM
 =  384.5    (WHEN MIN. R.F.=1)  AT K=   1, I=   5, J=   5


     1 CALLS TO GCG PACKAGE FOR TRANSPORT TIME STEP   1 IN FLOW TIME STEP  61 STRESS PERIOD   4
     2 TOTAL ITERATIONS
  MAXIMUM CONCENTRATION CHANGES FOR EACH ITERATION:
  MAX. CHANGE LAYER,ROW,COL MAX. CHANGE LAYER,ROW,COL MAX. CHANGE LAYER,ROW,COL MAX. CHANGE LAYER,ROW,COL MAX. CHANGE LAYER,ROW,COL
 ------------------------------------------------------------------------------------------------------------------------------------
   0.1097E-02 (  1,  5,  5)  0.3553E-14 (  1,  2,  7)


                                          ================================================
                                                         TIME STEP NO.  062
                                          ================================================

 FROM TIME =   262.00     TO    263.00    


                    "THKSAT          " FLOW TERMS FOR TIME STEP 62, STRESS PERIOD  4 READ UNFORMATTED ON UNIT 10
                    --------------------------------------------------------------------------------------------

                    "QXX             " FLOW TERMS FOR TIME STEP 62, STRESS PERIOD  4 READ UNFORMATTED ON UNIT 10
                    --------------------------------------------------------------------------------------------

                    "QYY             " FLOW TERMS FOR TIME STEP 62, STRESS PERIOD  4 READ UNFORMATTED ON UNIT 10
                    --------------------------------------------------------------------------------------------

                    "QZZ             " FLOW TERMS FOR TIME STEP 62, STRESS PERIOD  4 READ UNFORMATTED ON UNIT 10
                    --------------------------------------------------------------------------------------------

                    "STO             " FLOW TERMS FOR TIME STEP 62, STRESS PERIOD  4 READ UNFORMATTED ON UNIT 10
                    --------------------------------------------------------------------------------------------

 MAXIMUM STEPSIZE DURING WHICH ANY PARTICLE CANNOT MOVE MORE THAN ONE CELL
 =  601.3    (WHEN MIN. R.F.=1)  AT K=   2, I=   5, J=   5

 MAXIMUM STEPSIZE WHICH MEETS STABILITY CRITERION OF THE ADVECTION TERM
 (FOR PURE FINITE-DIFFERENCE OPTION, MIXELM=0) 
 =  189.2    (WHEN MIN. R.F.=1)  AT K=   2, I=   5, J=   5

                    "CNH             " FLOW TERMS FOR TIME STEP 62, STRESS PERIOD  4 READ UNFORMATTED ON UNIT 10
                    --------------------------------------------------------------------------------------------

                    "WEL             " FLOW TERMS FOR TIME STEP 62, STRESS PERIOD  4 READ UNFORMATTED ON UNIT 10
                    --------------------------------------------------------------------------------------------

                    "GHB             " FLOW TERMS FOR TIME STEP 62, STRESS PERIOD  4 READ UNFORMATTED ON UNIT 10
                    --------------------------------------------------------------------------------------------


 TOTAL NUMBER OF POINT SOURCES/SINKS PRESENT IN THE FLOW MODEL =    41

 MAXIMUM STEPSIZE WHICH MEETS STABILITY CRITERION OF THE SINK & SOURCE TERM
 =  128.6    (WHEN MIN. R.F.=1)  AT K=   1, I=   5, J=   5

 MAXIMUM STEPSIZE WHICH MEETS STABILITY CRITERION OF THE DISPERSION TERM
 =  384.6    (WHEN MIN. R.F.=1)  AT K=   1, I=   5, J=   5


     1 CALLS TO GCG PACKAGE FOR TRANSPORT TIME STEP   1 IN FLOW TIME STEP  62 STRESS PERIOD   4
     2 TOTAL ITERATIONS
  MAXIMUM CONCENTRATION CHANGES FOR EACH ITERATION:
  MAX. CHANGE LAYER,ROW,COL MAX. CHANGE LAYER,ROW,COL MAX. CHANGE LAYER,ROW,COL MAX. CHANGE LAYER,ROW,COL MAX. CHANGE LAYER,ROW,COL
 ------------------------------------------------------------------------------------------------------------------------------------
   0.1086E-02 (  1,  5,  5)  0.3553E-14 (  1,  2,  7)


                                          ================================================
                                                         TIME STEP NO.  063
                                          ================================================

 FROM TIME =   263.00     TO    264.00    


                    "THKSAT          " FLOW TERMS FOR TIME STEP 63, STRESS PERIOD  4 READ UNFORMATTED ON UNIT 10
                    --------------------------------------------------------------------------------------------

                    "QXX             " FLOW TERMS FOR TIME STEP 63, STRESS PERIOD  4 READ UNFORMATTED ON UNIT 10
                    --------------------------------------------------------------------------------------------

                    "QYY             " FLOW TERMS FOR TIME STEP 63, STRESS PERIOD  4 READ UNFORMATTED ON UNIT 10
                    --------------------------------------------------------------------------------------------

                    "QZZ             " FLOW TERMS FOR TIME STEP 63, STRESS PERIOD  4 READ UNFORMATTED ON UNIT 10
                    --------------------------------------------------------------------------------------------

                    "STO             " FLOW TERMS FOR TIME STEP 63, STRESS PERIOD  4 READ UNFORMATTED ON UNIT 10
                    --------------------------------------------------------------------------------------------

 MAXIMUM STEPSIZE DURING WHICH ANY PARTICLE CANNOT MOVE MORE THAN ONE CELL
 =  601.3    (WHEN MIN. R.F.=1)  AT K=   2, I=   5, J=   5

 MAXIMUM STEPSIZE WHICH MEETS STABILITY CRITERION OF THE ADVECTION TERM
 (FOR PURE FINITE-DIFFERENCE OPTION, MIXELM=0) 
 =  189.2    (WHEN MIN. R.F.=1)  AT K=   2, I=   5, J=   5

                    "CNH             " FLOW TERMS FOR TIME STEP 63, STRESS PERIOD  4 READ UNFORMATTED ON UNIT 10
                    --------------------------------------------------------------------------------------------

                    "WEL             " FLOW TERMS FOR TIME STEP 63, STRESS PERIOD  4 READ UNFORMATTED ON UNIT 10
                    --------------------------------------------------------------------------------------------

                    "GHB             " FLOW TERMS FOR TIME STEP 63, STRESS PERIOD  4 READ UNFORMATTED ON UNIT 10
                    --------------------------------------------------------------------------------------------


 TOTAL NUMBER OF POINT SOURCES/SINKS PRESENT IN THE FLOW MODEL =    41

 MAXIMUM STEPSIZE WHICH MEETS STABILITY CRITERION OF THE SINK & SOURCE TERM
 =  128.6    (WHEN MIN. R.F.=1)  AT K=   1, I=   5, J=   5

 MAXIMUM STEPSIZE WHICH MEETS STABILITY CRITERION OF THE DISPERSION TERM
 =  384.6    (WHEN MIN. R.F.=1)  AT K=   1, I=   5, J=   5


     1 CALLS TO GCG PACKAGE FOR TRANSPORT TIME STEP   1 IN FLOW TIME STEP  63 STRESS PERIOD   4
     2 TOTAL ITERATIONS
  MAXIMUM CONCENTRATION CHANGES FOR EACH ITERATION:
  MAX. CHANGE LAYER,ROW,COL MAX. CHANGE LAYER,ROW,COL MAX. CHANGE LAYER,ROW,COL MAX. CHANGE LAYER,ROW,COL MAX. CHANGE LAYER,ROW,COL
 ------------------------------------------------------------------------------------------------------------------------------------
   0.1075E-02 (  1,  5,  5)  0.3553E-14 (  1,  2,  7)


                                          ================================================
                                                         TIME STEP NO.  064
                                          ================================================

 FROM TIME =   264.00     TO    265.00    


                    "THKSAT          " FLOW TERMS FOR TIME STEP 64, STRESS PERIOD  4 READ UNFORMATTED ON UNIT 10
                    --------------------------------------------------------------------------------------------

                    "QXX             " FLOW TERMS FOR TIME STEP 64, STRESS PERIOD  4 READ UNFORMATTED ON UNIT 10
                    --------------------------------------------------------------------------------------------

                    "QYY             " FLOW TERMS FOR TIME STEP 64, STRESS PERIOD  4 READ UNFORMATTED ON UNIT 10
                    --------------------------------------------------------------------------------------------

                    "QZZ             " FLOW TERMS FOR TIME STEP 64, STRESS PERIOD  4 READ UNFORMATTED ON UNIT 10
                    --------------------------------------------------------------------------------------------

                    "STO             " FLOW TERMS FOR TIME STEP 64, STRESS PERIOD  4 READ UNFORMATTED ON UNIT 10
                    --------------------------------------------------------------------------------------------

 MAXIMUM STEPSIZE DURING WHICH ANY PARTICLE CANNOT MOVE MORE THAN ONE CELL
 =  601.3    (WHEN MIN. R.F.=1)  AT K=   2, I=   5, J=   5

 MAXIMUM STEPSIZE WHICH MEETS STABILITY CRITERION OF THE ADVECTION TERM
 (FOR PURE FINITE-DIFFERENCE OPTION, MIXELM=0) 
 =  189.2    (WHEN MIN. R.F.=1)  AT K=   2, I=   5, J=   5

                    "CNH             " FLOW TERMS FOR TIME STEP 64, STRESS PERIOD  4 READ UNFORMATTED ON UNIT 10
                    --------------------------------------------------------------------------------------------

                    "WEL             " FLOW TERMS FOR TIME STEP 64, STRESS PERIOD  4 READ UNFORMATTED ON UNIT 10
                    --------------------------------------------------------------------------------------------

                    "GHB             " FLOW TERMS FOR TIME STEP 64, STRESS PERIOD  4 READ UNFORMATTED ON UNIT 10
                    --------------------------------------------------------------------------------------------


 TOTAL NUMBER OF POINT SOURCES/SINKS PRESENT IN THE FLOW MODEL =    41

 MAXIMUM STEPSIZE WHICH MEETS STABILITY CRITERION OF THE SINK & SOURCE TERM
 =  128.6    (WHEN MIN. R.F.=1)  AT K=   1, I=   5, J=   5

 MAXIMUM STEPSIZE WHICH MEETS STABILITY CRITERION OF THE DISPERSION TERM
 =  384.6    (WHEN MIN. R.F.=1)  AT K=   1, I=   5, J=   5


     1 CALLS TO GCG PACKAGE FOR TRANSPORT TIME STEP   1 IN FLOW TIME STEP  64 STRESS PERIOD   4
     2 TOTAL ITERATIONS
  MAXIMUM CONCENTRATION CHANGES FOR EACH ITERATION:
  MAX. CHANGE LAYER,ROW,COL MAX. CHANGE LAYER,ROW,COL MAX. CHANGE LAYER,ROW,COL MAX. CHANGE LAYER,ROW,COL MAX. CHANGE LAYER,ROW,COL
 ------------------------------------------------------------------------------------------------------------------------------------
   0.1064E-02 (  1,  5,  5)  0.3553E-14 (  1,  2,  7)


                                          ================================================
                                                         TIME STEP NO.  065
                                          ================================================

 FROM TIME =   265.00     TO    266.00    


                    "THKSAT          " FLOW TERMS FOR TIME STEP 65, STRESS PERIOD  4 READ UNFORMATTED ON UNIT 10
                    --------------------------------------------------------------------------------------------

                    "QXX             " FLOW TERMS FOR TIME STEP 65, STRESS PERIOD  4 READ UNFORMATTED ON UNIT 10
                    --------------------------------------------------------------------------------------------

                    "QYY             " FLOW TERMS FOR TIME STEP 65, STRESS PERIOD  4 READ UNFORMATTED ON UNIT 10
                    --------------------------------------------------------------------------------------------

                    "QZZ             " FLOW TERMS FOR TIME STEP 65, STRESS PERIOD  4 READ UNFORMATTED ON UNIT 10
                    --------------------------------------------------------------------------------------------

                    "STO             " FLOW TERMS FOR TIME STEP 65, STRESS PERIOD  4 READ UNFORMATTED ON UNIT 10
                    --------------------------------------------------------------------------------------------

 MAXIMUM STEPSIZE DURING WHICH ANY PARTICLE CANNOT MOVE MORE THAN ONE CELL
 =  601.3    (WHEN MIN. R.F.=1)  AT K=   2, I=   5, J=   5

 MAXIMUM STEPSIZE WHICH MEETS STABILITY CRITERION OF THE ADVECTION TERM
 (FOR PURE FINITE-DIFFERENCE OPTION, MIXELM=0) 
 =  189.2    (WHEN MIN. R.F.=1)  AT K=   2, I=   5, J=   5

                    "CNH             " FLOW TERMS FOR TIME STEP 65, STRESS PERIOD  4 READ UNFORMATTED ON UNIT 10
                    --------------------------------------------------------------------------------------------

                    "WEL             " FLOW TERMS FOR TIME STEP 65, STRESS PERIOD  4 READ UNFORMATTED ON UNIT 10
                    --------------------------------------------------------------------------------------------

                    "GHB             " FLOW TERMS FOR TIME STEP 65, STRESS PERIOD  4 READ UNFORMATTED ON UNIT 10
                    --------------------------------------------------------------------------------------------


 TOTAL NUMBER OF POINT SOURCES/SINKS PRESENT IN THE FLOW MODEL =    41

 MAXIMUM STEPSIZE WHICH MEETS STABILITY CRITERION OF THE SINK & SOURCE TERM
 =  128.6    (WHEN MIN. R.F.=1)  AT K=   1, I=   5, J=   5

 MAXIMUM STEPSIZE WHICH MEETS STABILITY CRITERION OF THE DISPERSION TERM
 =  384.6    (WHEN MIN. R.F.=1)  AT K=   1, I=   5, J=   5


     1 CALLS TO GCG PACKAGE FOR TRANSPORT TIME STEP   1 IN FLOW TIME STEP  65 STRESS PERIOD   4
     2 TOTAL ITERATIONS
  MAXIMUM CONCENTRATION CHANGES FOR EACH ITERATION:
  MAX. CHANGE LAYER,ROW,COL MAX. CHANGE LAYER,ROW,COL MAX. CHANGE LAYER,ROW,COL MAX. CHANGE LAYER,ROW,COL MAX. CHANGE LAYER,ROW,COL
 ------------------------------------------------------------------------------------------------------------------------------------
   0.1054E-02 (  1,  5,  5)  0.3553E-14 (  1,  2,  7)


                                          ================================================
                                                         TIME STEP NO.  066
                                          ================================================

 FROM TIME =   266.00     TO    267.00    


                    "THKSAT          " FLOW TERMS FOR TIME STEP 66, STRESS PERIOD  4 READ UNFORMATTED ON UNIT 10
                    --------------------------------------------------------------------------------------------

                    "QXX             " FLOW TERMS FOR TIME STEP 66, STRESS PERIOD  4 READ UNFORMATTED ON UNIT 10
                    --------------------------------------------------------------------------------------------

                    "QYY             " FLOW TERMS FOR TIME STEP 66, STRESS PERIOD  4 READ UNFORMATTED ON UNIT 10
                    --------------------------------------------------------------------------------------------

                    "QZZ             " FLOW TERMS FOR TIME STEP 66, STRESS PERIOD  4 READ UNFORMATTED ON UNIT 10
                    --------------------------------------------------------------------------------------------

                    "STO             " FLOW TERMS FOR TIME STEP 66, STRESS PERIOD  4 READ UNFORMATTED ON UNIT 10
                    --------------------------------------------------------------------------------------------

 MAXIMUM STEPSIZE DURING WHICH ANY PARTICLE CANNOT MOVE MORE THAN ONE CELL
 =  601.2    (WHEN MIN. R.F.=1)  AT K=   2, I=   5, J=   5

 MAXIMUM STEPSIZE WHICH MEETS STABILITY CRITERION OF THE ADVECTION TERM
 (FOR PURE FINITE-DIFFERENCE OPTION, MIXELM=0) 
 =  189.1    (WHEN MIN. R.F.=1)  AT K=   2, I=   5, J=   5

                    "CNH             " FLOW TERMS FOR TIME STEP 66, STRESS PERIOD  4 READ UNFORMATTED ON UNIT 10
                    --------------------------------------------------------------------------------------------

                    "WEL             " FLOW TERMS FOR TIME STEP 66, STRESS PERIOD  4 READ UNFORMATTED ON UNIT 10
                    --------------------------------------------------------------------------------------------

                    "GHB             " FLOW TERMS FOR TIME STEP 66, STRESS PERIOD  4 READ UNFORMATTED ON UNIT 10
                    --------------------------------------------------------------------------------------------


 TOTAL NUMBER OF POINT SOURCES/SINKS PRESENT IN THE FLOW MODEL =    41

 MAXIMUM STEPSIZE WHICH MEETS STABILITY CRITERION OF THE SINK & SOURCE TERM
 =  128.6    (WHEN MIN. R.F.=1)  AT K=   1, I=   5, J=   5

 MAXIMUM STEPSIZE WHICH MEETS STABILITY CRITERION OF THE DISPERSION TERM
 =  384.6    (WHEN MIN. R.F.=1)  AT K=   1, I=   5, J=   5


     1 CALLS TO GCG PACKAGE FOR TRANSPORT TIME STEP   1 IN FLOW TIME STEP  66 STRESS PERIOD   4
     2 TOTAL ITERATIONS
  MAXIMUM CONCENTRATION CHANGES FOR EACH ITERATION:
  MAX. CHANGE LAYER,ROW,COL MAX. CHANGE LAYER,ROW,COL MAX. CHANGE LAYER,ROW,COL MAX. CHANGE LAYER,ROW,COL MAX. CHANGE LAYER,ROW,COL
 ------------------------------------------------------------------------------------------------------------------------------------
   0.1044E-02 (  1,  5,  5)  0.4441E-15 (  2,  2,  7)


                                          ================================================
                                                         TIME STEP NO.  067
                                          ================================================

 FROM TIME =   267.00     TO    268.00    


                    "THKSAT          " FLOW TERMS FOR TIME STEP 67, STRESS PERIOD  4 READ UNFORMATTED ON UNIT 10
                    --------------------------------------------------------------------------------------------

                    "QXX             " FLOW TERMS FOR TIME STEP 67, STRESS PERIOD  4 READ UNFORMATTED ON UNIT 10
                    --------------------------------------------------------------------------------------------

                    "QYY             " FLOW TERMS FOR TIME STEP 67, STRESS PERIOD  4 READ UNFORMATTED ON UNIT 10
                    --------------------------------------------------------------------------------------------

                    "QZZ             " FLOW TERMS FOR TIME STEP 67, STRESS PERIOD  4 READ UNFORMATTED ON UNIT 10
                    --------------------------------------------------------------------------------------------

                    "STO             " FLOW TERMS FOR TIME STEP 67, STRESS PERIOD  4 READ UNFORMATTED ON UNIT 10
                    --------------------------------------------------------------------------------------------

 MAXIMUM STEPSIZE DURING WHICH ANY PARTICLE CANNOT MOVE MORE THAN ONE CELL
 =  601.2    (WHEN MIN. R.F.=1)  AT K=   2, I=   5, J=   5

 MAXIMUM STEPSIZE WHICH MEETS STABILITY CRITERION OF THE ADVECTION TERM
 (FOR PURE FINITE-DIFFERENCE OPTION, MIXELM=0) 
 =  189.1    (WHEN MIN. R.F.=1)  AT K=   2, I=   5, J=   5

                    "CNH             " FLOW TERMS FOR TIME STEP 67, STRESS PERIOD  4 READ UNFORMATTED ON UNIT 10
                    --------------------------------------------------------------------------------------------

                    "WEL             " FLOW TERMS FOR TIME STEP 67, STRESS PERIOD  4 READ UNFORMATTED ON UNIT 10
                    --------------------------------------------------------------------------------------------

                    "GHB             " FLOW TERMS FOR TIME STEP 67, STRESS PERIOD  4 READ UNFORMATTED ON UNIT 10
                    --------------------------------------------------------------------------------------------


 TOTAL NUMBER OF POINT SOURCES/SINKS PRESENT IN THE FLOW MODEL =    41

 MAXIMUM STEPSIZE WHICH MEETS STABILITY CRITERION OF THE SINK & SOURCE TERM
 =  128.6    (WHEN MIN. R.F.=1)  AT K=   1, I=   5, J=   5

 MAXIMUM STEPSIZE WHICH MEETS STABILITY CRITERION OF THE DISPERSION TERM
 =  384.6    (WHEN MIN. R.F.=1)  AT K=   1, I=   5, J=   5


     1 CALLS TO GCG PACKAGE FOR TRANSPORT TIME STEP   1 IN FLOW TIME STEP  67 STRESS PERIOD   4
     2 TOTAL ITERATIONS
  MAXIMUM CONCENTRATION CHANGES FOR EACH ITERATION:
  MAX. CHANGE LAYER,ROW,COL MAX. CHANGE LAYER,ROW,COL MAX. CHANGE LAYER,ROW,COL MAX. CHANGE LAYER,ROW,COL MAX. CHANGE LAYER,ROW,COL
 ------------------------------------------------------------------------------------------------------------------------------------
   0.1033E-02 (  1,  5,  5)  0.4441E-15 (  2,  2,  7)


                                          ================================================
                                                         TIME STEP NO.  068
                                          ================================================

 FROM TIME =   268.00     TO    269.00    


                    "THKSAT          " FLOW TERMS FOR TIME STEP 68, STRESS PERIOD  4 READ UNFORMATTED ON UNIT 10
                    --------------------------------------------------------------------------------------------

                    "QXX             " FLOW TERMS FOR TIME STEP 68, STRESS PERIOD  4 READ UNFORMATTED ON UNIT 10
                    --------------------------------------------------------------------------------------------

                    "QYY             " FLOW TERMS FOR TIME STEP 68, STRESS PERIOD  4 READ UNFORMATTED ON UNIT 10
                    --------------------------------------------------------------------------------------------

                    "QZZ             " FLOW TERMS FOR TIME STEP 68, STRESS PERIOD  4 READ UNFORMATTED ON UNIT 10
                    --------------------------------------------------------------------------------------------

                    "STO             " FLOW TERMS FOR TIME STEP 68, STRESS PERIOD  4 READ UNFORMATTED ON UNIT 10
                    --------------------------------------------------------------------------------------------

 MAXIMUM STEPSIZE DURING WHICH ANY PARTICLE CANNOT MOVE MORE THAN ONE CELL
 =  601.2    (WHEN MIN. R.F.=1)  AT K=   2, I=   5, J=   5

 MAXIMUM STEPSIZE WHICH MEETS STABILITY CRITERION OF THE ADVECTION TERM
 (FOR PURE FINITE-DIFFERENCE OPTION, MIXELM=0) 
 =  189.1    (WHEN MIN. R.F.=1)  AT K=   2, I=   5, J=   5

                    "CNH             " FLOW TERMS FOR TIME STEP 68, STRESS PERIOD  4 READ UNFORMATTED ON UNIT 10
                    --------------------------------------------------------------------------------------------

                    "WEL             " FLOW TERMS FOR TIME STEP 68, STRESS PERIOD  4 READ UNFORMATTED ON UNIT 10
                    --------------------------------------------------------------------------------------------

                    "GHB             " FLOW TERMS FOR TIME STEP 68, STRESS PERIOD  4 READ UNFORMATTED ON UNIT 10
                    --------------------------------------------------------------------------------------------


 TOTAL NUMBER OF POINT SOURCES/SINKS PRESENT IN THE FLOW MODEL =    41

 MAXIMUM STEPSIZE WHICH MEETS STABILITY CRITERION OF THE SINK & SOURCE TERM
 =  128.6    (WHEN MIN. R.F.=1)  AT K=   1, I=   5, J=   5

 MAXIMUM STEPSIZE WHICH MEETS STABILITY CRITERION OF THE DISPERSION TERM
 =  384.6    (WHEN MIN. R.F.=1)  AT K=   1, I=   5, J=   5


     1 CALLS TO GCG PACKAGE FOR TRANSPORT TIME STEP   1 IN FLOW TIME STEP  68 STRESS PERIOD   4
     2 TOTAL ITERATIONS
  MAXIMUM CONCENTRATION CHANGES FOR EACH ITERATION:
  MAX. CHANGE LAYER,ROW,COL MAX. CHANGE LAYER,ROW,COL MAX. CHANGE LAYER,ROW,COL MAX. CHANGE LAYER,ROW,COL MAX. CHANGE LAYER,ROW,COL
 ------------------------------------------------------------------------------------------------------------------------------------
   0.1023E-02 (  1,  5,  5)  0.4441E-15 (  2,  2,  7)


                                          ================================================
                                                         TIME STEP NO.  069
                                          ================================================

 FROM TIME =   269.00     TO    270.00    


                    "THKSAT          " FLOW TERMS FOR TIME STEP 69, STRESS PERIOD  4 READ UNFORMATTED ON UNIT 10
                    --------------------------------------------------------------------------------------------

                    "QXX             " FLOW TERMS FOR TIME STEP 69, STRESS PERIOD  4 READ UNFORMATTED ON UNIT 10
                    --------------------------------------------------------------------------------------------

                    "QYY             " FLOW TERMS FOR TIME STEP 69, STRESS PERIOD  4 READ UNFORMATTED ON UNIT 10
                    --------------------------------------------------------------------------------------------

                    "QZZ             " FLOW TERMS FOR TIME STEP 69, STRESS PERIOD  4 READ UNFORMATTED ON UNIT 10
                    --------------------------------------------------------------------------------------------

                    "STO             " FLOW TERMS FOR TIME STEP 69, STRESS PERIOD  4 READ UNFORMATTED ON UNIT 10
                    --------------------------------------------------------------------------------------------

 MAXIMUM STEPSIZE DURING WHICH ANY PARTICLE CANNOT MOVE MORE THAN ONE CELL
 =  601.2    (WHEN MIN. R.F.=1)  AT K=   2, I=   5, J=   5

 MAXIMUM STEPSIZE WHICH MEETS STABILITY CRITERION OF THE ADVECTION TERM
 (FOR PURE FINITE-DIFFERENCE OPTION, MIXELM=0) 
 =  189.1    (WHEN MIN. R.F.=1)  AT K=   2, I=   5, J=   5

                    "CNH             " FLOW TERMS FOR TIME STEP 69, STRESS PERIOD  4 READ UNFORMATTED ON UNIT 10
                    --------------------------------------------------------------------------------------------

                    "WEL             " FLOW TERMS FOR TIME STEP 69, STRESS PERIOD  4 READ UNFORMATTED ON UNIT 10
                    --------------------------------------------------------------------------------------------

                    "GHB             " FLOW TERMS FOR TIME STEP 69, STRESS PERIOD  4 READ UNFORMATTED ON UNIT 10
                    --------------------------------------------------------------------------------------------


 TOTAL NUMBER OF POINT SOURCES/SINKS PRESENT IN THE FLOW MODEL =    41

 MAXIMUM STEPSIZE WHICH MEETS STABILITY CRITERION OF THE SINK & SOURCE TERM
 =  128.6    (WHEN MIN. R.F.=1)  AT K=   1, I=   5, J=   5

 MAXIMUM STEPSIZE WHICH MEETS STABILITY CRITERION OF THE DISPERSION TERM
 =  384.6    (WHEN MIN. R.F.=1)  AT K=   1, I=   5, J=   5


     1 CALLS TO GCG PACKAGE FOR TRANSPORT TIME STEP   1 IN FLOW TIME STEP  69 STRESS PERIOD   4
     2 TOTAL ITERATIONS
  MAXIMUM CONCENTRATION CHANGES FOR EACH ITERATION:
  MAX. CHANGE LAYER,ROW,COL MAX. CHANGE LAYER,ROW,COL MAX. CHANGE LAYER,ROW,COL MAX. CHANGE LAYER,ROW,COL MAX. CHANGE LAYER,ROW,COL
 ------------------------------------------------------------------------------------------------------------------------------------
   0.1013E-02 (  1,  5,  5)  0.4441E-15 (  2,  2,  7)


                                          ================================================
                                                         TIME STEP NO.  070
                                          ================================================

 FROM TIME =   270.00     TO    271.00    


                    "THKSAT          " FLOW TERMS FOR TIME STEP 70, STRESS PERIOD  4 READ UNFORMATTED ON UNIT 10
                    --------------------------------------------------------------------------------------------

                    "QXX             " FLOW TERMS FOR TIME STEP 70, STRESS PERIOD  4 READ UNFORMATTED ON UNIT 10
                    --------------------------------------------------------------------------------------------

                    "QYY             " FLOW TERMS FOR TIME STEP 70, STRESS PERIOD  4 READ UNFORMATTED ON UNIT 10
                    --------------------------------------------------------------------------------------------

                    "QZZ             " FLOW TERMS FOR TIME STEP 70, STRESS PERIOD  4 READ UNFORMATTED ON UNIT 10
                    --------------------------------------------------------------------------------------------

                    "STO             " FLOW TERMS FOR TIME STEP 70, STRESS PERIOD  4 READ UNFORMATTED ON UNIT 10
                    --------------------------------------------------------------------------------------------

 MAXIMUM STEPSIZE DURING WHICH ANY PARTICLE CANNOT MOVE MORE THAN ONE CELL
 =  601.2    (WHEN MIN. R.F.=1)  AT K=   2, I=   5, J=   5

 MAXIMUM STEPSIZE WHICH MEETS STABILITY CRITERION OF THE ADVECTION TERM
 (FOR PURE FINITE-DIFFERENCE OPTION, MIXELM=0) 
 =  189.1    (WHEN MIN. R.F.=1)  AT K=   2, I=   5, J=   5

                    "CNH             " FLOW TERMS FOR TIME STEP 70, STRESS PERIOD  4 READ UNFORMATTED ON UNIT 10
                    --------------------------------------------------------------------------------------------

                    "WEL             " FLOW TERMS FOR TIME STEP 70, STRESS PERIOD  4 READ UNFORMATTED ON UNIT 10
                    --------------------------------------------------------------------------------------------

                    "GHB             " FLOW TERMS FOR TIME STEP 70, STRESS PERIOD  4 READ UNFORMATTED ON UNIT 10
                    --------------------------------------------------------------------------------------------


 TOTAL NUMBER OF POINT SOURCES/SINKS PRESENT IN THE FLOW MODEL =    41

 MAXIMUM STEPSIZE WHICH MEETS STABILITY CRITERION OF THE SINK & SOURCE TERM
 =  128.6    (WHEN MIN. R.F.=1)  AT K=   1, I=   5, J=   5

 MAXIMUM STEPSIZE WHICH MEETS STABILITY CRITERION OF THE DISPERSION TERM
 =  384.6    (WHEN MIN. R.F.=1)  AT K=   1, I=   5, J=   5


     1 CALLS TO GCG PACKAGE FOR TRANSPORT TIME STEP   1 IN FLOW TIME STEP  70 STRESS PERIOD   4
     2 TOTAL ITERATIONS
  MAXIMUM CONCENTRATION CHANGES FOR EACH ITERATION:
  MAX. CHANGE LAYER,ROW,COL MAX. CHANGE LAYER,ROW,COL MAX. CHANGE LAYER,ROW,COL MAX. CHANGE LAYER,ROW,COL MAX. CHANGE LAYER,ROW,COL
 ------------------------------------------------------------------------------------------------------------------------------------
   0.1003E-02 (  1,  5,  5)  0.4441E-15 (  2,  2,  7)


                                          ================================================
                                                         TIME STEP NO.  071
                                          ================================================

 FROM TIME =   271.00     TO    272.00    


                    "THKSAT          " FLOW TERMS FOR TIME STEP 71, STRESS PERIOD  4 READ UNFORMATTED ON UNIT 10
                    --------------------------------------------------------------------------------------------

                    "QXX             " FLOW TERMS FOR TIME STEP 71, STRESS PERIOD  4 READ UNFORMATTED ON UNIT 10
                    --------------------------------------------------------------------------------------------

                    "QYY             " FLOW TERMS FOR TIME STEP 71, STRESS PERIOD  4 READ UNFORMATTED ON UNIT 10
                    --------------------------------------------------------------------------------------------

                    "QZZ             " FLOW TERMS FOR TIME STEP 71, STRESS PERIOD  4 READ UNFORMATTED ON UNIT 10
                    --------------------------------------------------------------------------------------------

                    "STO             " FLOW TERMS FOR TIME STEP 71, STRESS PERIOD  4 READ UNFORMATTED ON UNIT 10
                    --------------------------------------------------------------------------------------------

 MAXIMUM STEPSIZE DURING WHICH ANY PARTICLE CANNOT MOVE MORE THAN ONE CELL
 =  601.2    (WHEN MIN. R.F.=1)  AT K=   2, I=   5, J=   5

 MAXIMUM STEPSIZE WHICH MEETS STABILITY CRITERION OF THE ADVECTION TERM
 (FOR PURE FINITE-DIFFERENCE OPTION, MIXELM=0) 
 =  189.1    (WHEN MIN. R.F.=1)  AT K=   2, I=   5, J=   5

                    "CNH             " FLOW TERMS FOR TIME STEP 71, STRESS PERIOD  4 READ UNFORMATTED ON UNIT 10
                    --------------------------------------------------------------------------------------------

                    "WEL             " FLOW TERMS FOR TIME STEP 71, STRESS PERIOD  4 READ UNFORMATTED ON UNIT 10
                    --------------------------------------------------------------------------------------------

                    "GHB             " FLOW TERMS FOR TIME STEP 71, STRESS PERIOD  4 READ UNFORMATTED ON UNIT 10
                    --------------------------------------------------------------------------------------------


 TOTAL NUMBER OF POINT SOURCES/SINKS PRESENT IN THE FLOW MODEL =    41

 MAXIMUM STEPSIZE WHICH MEETS STABILITY CRITERION OF THE SINK & SOURCE TERM
 =  128.6    (WHEN MIN. R.F.=1)  AT K=   1, I=   5, J=   5

 MAXIMUM STEPSIZE WHICH MEETS STABILITY CRITERION OF THE DISPERSION TERM
 =  384.6    (WHEN MIN. R.F.=1)  AT K=   1, I=   5, J=   5


     1 CALLS TO GCG PACKAGE FOR TRANSPORT TIME STEP   1 IN FLOW TIME STEP  71 STRESS PERIOD   4
     2 TOTAL ITERATIONS
  MAXIMUM CONCENTRATION CHANGES FOR EACH ITERATION:
  MAX. CHANGE LAYER,ROW,COL MAX. CHANGE LAYER,ROW,COL MAX. CHANGE LAYER,ROW,COL MAX. CHANGE LAYER,ROW,COL MAX. CHANGE LAYER,ROW,COL
 ------------------------------------------------------------------------------------------------------------------------------------
   0.9924E-03 (  1,  5,  5)  0.4441E-15 (  2,  2,  7)


                                          ================================================
                                                         TIME STEP NO.  072
                                          ================================================

 FROM TIME =   272.00     TO    273.00    


                    "THKSAT          " FLOW TERMS FOR TIME STEP 72, STRESS PERIOD  4 READ UNFORMATTED ON UNIT 10
                    --------------------------------------------------------------------------------------------

                    "QXX             " FLOW TERMS FOR TIME STEP 72, STRESS PERIOD  4 READ UNFORMATTED ON UNIT 10
                    --------------------------------------------------------------------------------------------

                    "QYY             " FLOW TERMS FOR TIME STEP 72, STRESS PERIOD  4 READ UNFORMATTED ON UNIT 10
                    --------------------------------------------------------------------------------------------

                    "QZZ             " FLOW TERMS FOR TIME STEP 72, STRESS PERIOD  4 READ UNFORMATTED ON UNIT 10
                    --------------------------------------------------------------------------------------------

                    "STO             " FLOW TERMS FOR TIME STEP 72, STRESS PERIOD  4 READ UNFORMATTED ON UNIT 10
                    --------------------------------------------------------------------------------------------

 MAXIMUM STEPSIZE DURING WHICH ANY PARTICLE CANNOT MOVE MORE THAN ONE CELL
 =  601.2    (WHEN MIN. R.F.=1)  AT K=   2, I=   5, J=   5

 MAXIMUM STEPSIZE WHICH MEETS STABILITY CRITERION OF THE ADVECTION TERM
 (FOR PURE FINITE-DIFFERENCE OPTION, MIXELM=0) 
 =  189.1    (WHEN MIN. R.F.=1)  AT K=   2, I=   5, J=   5

                    "CNH             " FLOW TERMS FOR TIME STEP 72, STRESS PERIOD  4 READ UNFORMATTED ON UNIT 10
                    --------------------------------------------------------------------------------------------

                    "WEL             " FLOW TERMS FOR TIME STEP 72, STRESS PERIOD  4 READ UNFORMATTED ON UNIT 10
                    --------------------------------------------------------------------------------------------

                    "GHB             " FLOW TERMS FOR TIME STEP 72, STRESS PERIOD  4 READ UNFORMATTED ON UNIT 10
                    --------------------------------------------------------------------------------------------


 TOTAL NUMBER OF POINT SOURCES/SINKS PRESENT IN THE FLOW MODEL =    41

 MAXIMUM STEPSIZE WHICH MEETS STABILITY CRITERION OF THE SINK & SOURCE TERM
 =  128.6    (WHEN MIN. R.F.=1)  AT K=   1, I=   5, J=   5

 MAXIMUM STEPSIZE WHICH MEETS STABILITY CRITERION OF THE DISPERSION TERM
 =  384.7    (WHEN MIN. R.F.=1)  AT K=   1, I=   5, J=   5


     1 CALLS TO GCG PACKAGE FOR TRANSPORT TIME STEP   1 IN FLOW TIME STEP  72 STRESS PERIOD   4
     2 TOTAL ITERATIONS
  MAXIMUM CONCENTRATION CHANGES FOR EACH ITERATION:
  MAX. CHANGE LAYER,ROW,COL MAX. CHANGE LAYER,ROW,COL MAX. CHANGE LAYER,ROW,COL MAX. CHANGE LAYER,ROW,COL MAX. CHANGE LAYER,ROW,COL
 ------------------------------------------------------------------------------------------------------------------------------------
   0.9847E-03 (  1,  5,  5)  0.4441E-15 (  2,  2,  7)


                                          ================================================
                                                         TIME STEP NO.  073
                                          ================================================

 FROM TIME =   273.00     TO    274.00    


                    "THKSAT          " FLOW TERMS FOR TIME STEP 73, STRESS PERIOD  4 READ UNFORMATTED ON UNIT 10
                    --------------------------------------------------------------------------------------------

                    "QXX             " FLOW TERMS FOR TIME STEP 73, STRESS PERIOD  4 READ UNFORMATTED ON UNIT 10
                    --------------------------------------------------------------------------------------------

                    "QYY             " FLOW TERMS FOR TIME STEP 73, STRESS PERIOD  4 READ UNFORMATTED ON UNIT 10
                    --------------------------------------------------------------------------------------------

                    "QZZ             " FLOW TERMS FOR TIME STEP 73, STRESS PERIOD  4 READ UNFORMATTED ON UNIT 10
                    --------------------------------------------------------------------------------------------

                    "STO             " FLOW TERMS FOR TIME STEP 73, STRESS PERIOD  4 READ UNFORMATTED ON UNIT 10
                    --------------------------------------------------------------------------------------------

 MAXIMUM STEPSIZE DURING WHICH ANY PARTICLE CANNOT MOVE MORE THAN ONE CELL
 =  601.2    (WHEN MIN. R.F.=1)  AT K=   2, I=   5, J=   5

 MAXIMUM STEPSIZE WHICH MEETS STABILITY CRITERION OF THE ADVECTION TERM
 (FOR PURE FINITE-DIFFERENCE OPTION, MIXELM=0) 
 =  189.0    (WHEN MIN. R.F.=1)  AT K=   2, I=   5, J=   5

                    "CNH             " FLOW TERMS FOR TIME STEP 73, STRESS PERIOD  4 READ UNFORMATTED ON UNIT 10
                    --------------------------------------------------------------------------------------------

                    "WEL             " FLOW TERMS FOR TIME STEP 73, STRESS PERIOD  4 READ UNFORMATTED ON UNIT 10
                    --------------------------------------------------------------------------------------------

                    "GHB             " FLOW TERMS FOR TIME STEP 73, STRESS PERIOD  4 READ UNFORMATTED ON UNIT 10
                    --------------------------------------------------------------------------------------------


 TOTAL NUMBER OF POINT SOURCES/SINKS PRESENT IN THE FLOW MODEL =    41

 MAXIMUM STEPSIZE WHICH MEETS STABILITY CRITERION OF THE SINK & SOURCE TERM
 =  128.6    (WHEN MIN. R.F.=1)  AT K=   1, I=   5, J=   5

 MAXIMUM STEPSIZE WHICH MEETS STABILITY CRITERION OF THE DISPERSION TERM
 =  384.7    (WHEN MIN. R.F.=1)  AT K=   1, I=   5, J=   5


     1 CALLS TO GCG PACKAGE FOR TRANSPORT TIME STEP   1 IN FLOW TIME STEP  73 STRESS PERIOD   4
     2 TOTAL ITERATIONS
  MAXIMUM CONCENTRATION CHANGES FOR EACH ITERATION:
  MAX. CHANGE LAYER,ROW,COL MAX. CHANGE LAYER,ROW,COL MAX. CHANGE LAYER,ROW,COL MAX. CHANGE LAYER,ROW,COL MAX. CHANGE LAYER,ROW,COL
 ------------------------------------------------------------------------------------------------------------------------------------
   0.9751E-03 (  1,  5,  5)  0.4441E-15 (  2,  2,  7)


                                          ================================================
                                                         TIME STEP NO.  074
                                          ================================================

 FROM TIME =   274.00     TO    275.00    


                    "THKSAT          " FLOW TERMS FOR TIME STEP 74, STRESS PERIOD  4 READ UNFORMATTED ON UNIT 10
                    --------------------------------------------------------------------------------------------

                    "QXX             " FLOW TERMS FOR TIME STEP 74, STRESS PERIOD  4 READ UNFORMATTED ON UNIT 10
                    --------------------------------------------------------------------------------------------

                    "QYY             " FLOW TERMS FOR TIME STEP 74, STRESS PERIOD  4 READ UNFORMATTED ON UNIT 10
                    --------------------------------------------------------------------------------------------

                    "QZZ             " FLOW TERMS FOR TIME STEP 74, STRESS PERIOD  4 READ UNFORMATTED ON UNIT 10
                    --------------------------------------------------------------------------------------------

                    "STO             " FLOW TERMS FOR TIME STEP 74, STRESS PERIOD  4 READ UNFORMATTED ON UNIT 10
                    --------------------------------------------------------------------------------------------

 MAXIMUM STEPSIZE DURING WHICH ANY PARTICLE CANNOT MOVE MORE THAN ONE CELL
 =  601.2    (WHEN MIN. R.F.=1)  AT K=   2, I=   5, J=   5

 MAXIMUM STEPSIZE WHICH MEETS STABILITY CRITERION OF THE ADVECTION TERM
 (FOR PURE FINITE-DIFFERENCE OPTION, MIXELM=0) 
 =  189.0    (WHEN MIN. R.F.=1)  AT K=   2, I=   5, J=   5

                    "CNH             " FLOW TERMS FOR TIME STEP 74, STRESS PERIOD  4 READ UNFORMATTED ON UNIT 10
                    --------------------------------------------------------------------------------------------

                    "WEL             " FLOW TERMS FOR TIME STEP 74, STRESS PERIOD  4 READ UNFORMATTED ON UNIT 10
                    --------------------------------------------------------------------------------------------

                    "GHB             " FLOW TERMS FOR TIME STEP 74, STRESS PERIOD  4 READ UNFORMATTED ON UNIT 10
                    --------------------------------------------------------------------------------------------


 TOTAL NUMBER OF POINT SOURCES/SINKS PRESENT IN THE FLOW MODEL =    41

 MAXIMUM STEPSIZE WHICH MEETS STABILITY CRITERION OF THE SINK & SOURCE TERM
 =  128.6    (WHEN MIN. R.F.=1)  AT K=   1, I=   5, J=   5

 MAXIMUM STEPSIZE WHICH MEETS STABILITY CRITERION OF THE DISPERSION TERM
 =  384.7    (WHEN MIN. R.F.=1)  AT K=   1, I=   5, J=   5


     1 CALLS TO GCG PACKAGE FOR TRANSPORT TIME STEP   1 IN FLOW TIME STEP  74 STRESS PERIOD   4
     2 TOTAL ITERATIONS
  MAXIMUM CONCENTRATION CHANGES FOR EACH ITERATION:
  MAX. CHANGE LAYER,ROW,COL MAX. CHANGE LAYER,ROW,COL MAX. CHANGE LAYER,ROW,COL MAX. CHANGE LAYER,ROW,COL MAX. CHANGE LAYER,ROW,COL
 ------------------------------------------------------------------------------------------------------------------------------------
   0.9656E-03 (  1,  5,  5)  0.4441E-15 (  2,  2,  7)


                                          ================================================
                                                         TIME STEP NO.  075
                                          ================================================

 FROM TIME =   275.00     TO    276.00    


                    "THKSAT          " FLOW TERMS FOR TIME STEP 75, STRESS PERIOD  4 READ UNFORMATTED ON UNIT 10
                    --------------------------------------------------------------------------------------------

                    "QXX             " FLOW TERMS FOR TIME STEP 75, STRESS PERIOD  4 READ UNFORMATTED ON UNIT 10
                    --------------------------------------------------------------------------------------------

                    "QYY             " FLOW TERMS FOR TIME STEP 75, STRESS PERIOD  4 READ UNFORMATTED ON UNIT 10
                    --------------------------------------------------------------------------------------------

                    "QZZ             " FLOW TERMS FOR TIME STEP 75, STRESS PERIOD  4 READ UNFORMATTED ON UNIT 10
                    --------------------------------------------------------------------------------------------

                    "STO             " FLOW TERMS FOR TIME STEP 75, STRESS PERIOD  4 READ UNFORMATTED ON UNIT 10
                    --------------------------------------------------------------------------------------------

 MAXIMUM STEPSIZE DURING WHICH ANY PARTICLE CANNOT MOVE MORE THAN ONE CELL
 =  601.2    (WHEN MIN. R.F.=1)  AT K=   2, I=   5, J=   5

 MAXIMUM STEPSIZE WHICH MEETS STABILITY CRITERION OF THE ADVECTION TERM
 (FOR PURE FINITE-DIFFERENCE OPTION, MIXELM=0) 
 =  189.0    (WHEN MIN. R.F.=1)  AT K=   2, I=   5, J=   5

                    "CNH             " FLOW TERMS FOR TIME STEP 75, STRESS PERIOD  4 READ UNFORMATTED ON UNIT 10
                    --------------------------------------------------------------------------------------------

                    "WEL             " FLOW TERMS FOR TIME STEP 75, STRESS PERIOD  4 READ UNFORMATTED ON UNIT 10
                    --------------------------------------------------------------------------------------------

                    "GHB             " FLOW TERMS FOR TIME STEP 75, STRESS PERIOD  4 READ UNFORMATTED ON UNIT 10
                    --------------------------------------------------------------------------------------------


 TOTAL NUMBER OF POINT SOURCES/SINKS PRESENT IN THE FLOW MODEL =    41

 MAXIMUM STEPSIZE WHICH MEETS STABILITY CRITERION OF THE SINK & SOURCE TERM
 =  128.6    (WHEN MIN. R.F.=1)  AT K=   1, I=   5, J=   5

 MAXIMUM STEPSIZE WHICH MEETS STABILITY CRITERION OF THE DISPERSION TERM
 =  384.7    (WHEN MIN. R.F.=1)  AT K=   1, I=   5, J=   5


     1 CALLS TO GCG PACKAGE FOR TRANSPORT TIME STEP   1 IN FLOW TIME STEP  75 STRESS PERIOD   4
     2 TOTAL ITERATIONS
  MAXIMUM CONCENTRATION CHANGES FOR EACH ITERATION:
  MAX. CHANGE LAYER,ROW,COL MAX. CHANGE LAYER,ROW,COL MAX. CHANGE LAYER,ROW,COL MAX. CHANGE LAYER,ROW,COL MAX. CHANGE LAYER,ROW,COL
 ------------------------------------------------------------------------------------------------------------------------------------
   0.9561E-03 (  1,  5,  5)  0.4441E-15 (  2,  2,  7)


                                          ================================================
                                                         TIME STEP NO.  076
                                          ================================================

 FROM TIME =   276.00     TO    277.00    


                    "THKSAT          " FLOW TERMS FOR TIME STEP 76, STRESS PERIOD  4 READ UNFORMATTED ON UNIT 10
                    --------------------------------------------------------------------------------------------

                    "QXX             " FLOW TERMS FOR TIME STEP 76, STRESS PERIOD  4 READ UNFORMATTED ON UNIT 10
                    --------------------------------------------------------------------------------------------

                    "QYY             " FLOW TERMS FOR TIME STEP 76, STRESS PERIOD  4 READ UNFORMATTED ON UNIT 10
                    --------------------------------------------------------------------------------------------

                    "QZZ             " FLOW TERMS FOR TIME STEP 76, STRESS PERIOD  4 READ UNFORMATTED ON UNIT 10
                    --------------------------------------------------------------------------------------------

                    "STO             " FLOW TERMS FOR TIME STEP 76, STRESS PERIOD  4 READ UNFORMATTED ON UNIT 10
                    --------------------------------------------------------------------------------------------

 MAXIMUM STEPSIZE DURING WHICH ANY PARTICLE CANNOT MOVE MORE THAN ONE CELL
 =  601.1    (WHEN MIN. R.F.=1)  AT K=   2, I=   5, J=   5

 MAXIMUM STEPSIZE WHICH MEETS STABILITY CRITERION OF THE ADVECTION TERM
 (FOR PURE FINITE-DIFFERENCE OPTION, MIXELM=0) 
 =  189.0    (WHEN MIN. R.F.=1)  AT K=   2, I=   5, J=   5

                    "CNH             " FLOW TERMS FOR TIME STEP 76, STRESS PERIOD  4 READ UNFORMATTED ON UNIT 10
                    --------------------------------------------------------------------------------------------

                    "WEL             " FLOW TERMS FOR TIME STEP 76, STRESS PERIOD  4 READ UNFORMATTED ON UNIT 10
                    --------------------------------------------------------------------------------------------

                    "GHB             " FLOW TERMS FOR TIME STEP 76, STRESS PERIOD  4 READ UNFORMATTED ON UNIT 10
                    --------------------------------------------------------------------------------------------


 TOTAL NUMBER OF POINT SOURCES/SINKS PRESENT IN THE FLOW MODEL =    41

 MAXIMUM STEPSIZE WHICH MEETS STABILITY CRITERION OF THE SINK & SOURCE TERM
 =  128.6    (WHEN MIN. R.F.=1)  AT K=   1, I=   5, J=   5

 MAXIMUM STEPSIZE WHICH MEETS STABILITY CRITERION OF THE DISPERSION TERM
 =  384.7    (WHEN MIN. R.F.=1)  AT K=   1, I=   5, J=   5


     1 CALLS TO GCG PACKAGE FOR TRANSPORT TIME STEP   1 IN FLOW TIME STEP  76 STRESS PERIOD   4
     2 TOTAL ITERATIONS
  MAXIMUM CONCENTRATION CHANGES FOR EACH ITERATION:
  MAX. CHANGE LAYER,ROW,COL MAX. CHANGE LAYER,ROW,COL MAX. CHANGE LAYER,ROW,COL MAX. CHANGE LAYER,ROW,COL MAX. CHANGE LAYER,ROW,COL
 ------------------------------------------------------------------------------------------------------------------------------------
   0.9468E-03 (  1,  5,  5)  0.4441E-15 (  1,  2,  8)


                                          ================================================
                                                         TIME STEP NO.  077
                                          ================================================

 FROM TIME =   277.00     TO    278.00    


                    "THKSAT          " FLOW TERMS FOR TIME STEP 77, STRESS PERIOD  4 READ UNFORMATTED ON UNIT 10
                    --------------------------------------------------------------------------------------------

                    "QXX             " FLOW TERMS FOR TIME STEP 77, STRESS PERIOD  4 READ UNFORMATTED ON UNIT 10
                    --------------------------------------------------------------------------------------------

                    "QYY             " FLOW TERMS FOR TIME STEP 77, STRESS PERIOD  4 READ UNFORMATTED ON UNIT 10
                    --------------------------------------------------------------------------------------------

                    "QZZ             " FLOW TERMS FOR TIME STEP 77, STRESS PERIOD  4 READ UNFORMATTED ON UNIT 10
                    --------------------------------------------------------------------------------------------

                    "STO             " FLOW TERMS FOR TIME STEP 77, STRESS PERIOD  4 READ UNFORMATTED ON UNIT 10
                    --------------------------------------------------------------------------------------------

 MAXIMUM STEPSIZE DURING WHICH ANY PARTICLE CANNOT MOVE MORE THAN ONE CELL
 =  601.1    (WHEN MIN. R.F.=1)  AT K=   2, I=   5, J=   5

 MAXIMUM STEPSIZE WHICH MEETS STABILITY CRITERION OF THE ADVECTION TERM
 (FOR PURE FINITE-DIFFERENCE OPTION, MIXELM=0) 
 =  189.0    (WHEN MIN. R.F.=1)  AT K=   2, I=   5, J=   5

                    "CNH             " FLOW TERMS FOR TIME STEP 77, STRESS PERIOD  4 READ UNFORMATTED ON UNIT 10
                    --------------------------------------------------------------------------------------------

                    "WEL             " FLOW TERMS FOR TIME STEP 77, STRESS PERIOD  4 READ UNFORMATTED ON UNIT 10
                    --------------------------------------------------------------------------------------------

                    "GHB             " FLOW TERMS FOR TIME STEP 77, STRESS PERIOD  4 READ UNFORMATTED ON UNIT 10
                    --------------------------------------------------------------------------------------------


 TOTAL NUMBER OF POINT SOURCES/SINKS PRESENT IN THE FLOW MODEL =    41

 MAXIMUM STEPSIZE WHICH MEETS STABILITY CRITERION OF THE SINK & SOURCE TERM
 =  128.6    (WHEN MIN. R.F.=1)  AT K=   1, I=   5, J=   5

 MAXIMUM STEPSIZE WHICH MEETS STABILITY CRITERION OF THE DISPERSION TERM
 =  384.7    (WHEN MIN. R.F.=1)  AT K=   1, I=   5, J=   5


     1 CALLS TO GCG PACKAGE FOR TRANSPORT TIME STEP   1 IN FLOW TIME STEP  77 STRESS PERIOD   4
     2 TOTAL ITERATIONS
  MAXIMUM CONCENTRATION CHANGES FOR EACH ITERATION:
  MAX. CHANGE LAYER,ROW,COL MAX. CHANGE LAYER,ROW,COL MAX. CHANGE LAYER,ROW,COL MAX. CHANGE LAYER,ROW,COL MAX. CHANGE LAYER,ROW,COL
 ------------------------------------------------------------------------------------------------------------------------------------
   0.9375E-03 (  1,  5,  5)  0.4441E-15 (  1,  2,  8)


                                          ================================================
                                                         TIME STEP NO.  078
                                          ================================================

 FROM TIME =   278.00     TO    279.00    


                    "THKSAT          " FLOW TERMS FOR TIME STEP 78, STRESS PERIOD  4 READ UNFORMATTED ON UNIT 10
                    --------------------------------------------------------------------------------------------

                    "QXX             " FLOW TERMS FOR TIME STEP 78, STRESS PERIOD  4 READ UNFORMATTED ON UNIT 10
                    --------------------------------------------------------------------------------------------

                    "QYY             " FLOW TERMS FOR TIME STEP 78, STRESS PERIOD  4 READ UNFORMATTED ON UNIT 10
                    --------------------------------------------------------------------------------------------

                    "QZZ             " FLOW TERMS FOR TIME STEP 78, STRESS PERIOD  4 READ UNFORMATTED ON UNIT 10
                    --------------------------------------------------------------------------------------------

                    "STO             " FLOW TERMS FOR TIME STEP 78, STRESS PERIOD  4 READ UNFORMATTED ON UNIT 10
                    --------------------------------------------------------------------------------------------

 MAXIMUM STEPSIZE DURING WHICH ANY PARTICLE CANNOT MOVE MORE THAN ONE CELL
 =  601.1    (WHEN MIN. R.F.=1)  AT K=   2, I=   5, J=   5

 MAXIMUM STEPSIZE WHICH MEETS STABILITY CRITERION OF THE ADVECTION TERM
 (FOR PURE FINITE-DIFFERENCE OPTION, MIXELM=0) 
 =  189.0    (WHEN MIN. R.F.=1)  AT K=   2, I=   5, J=   5

                    "CNH             " FLOW TERMS FOR TIME STEP 78, STRESS PERIOD  4 READ UNFORMATTED ON UNIT 10
                    --------------------------------------------------------------------------------------------

                    "WEL             " FLOW TERMS FOR TIME STEP 78, STRESS PERIOD  4 READ UNFORMATTED ON UNIT 10
                    --------------------------------------------------------------------------------------------

                    "GHB             " FLOW TERMS FOR TIME STEP 78, STRESS PERIOD  4 READ UNFORMATTED ON UNIT 10
                    --------------------------------------------------------------------------------------------


 TOTAL NUMBER OF POINT SOURCES/SINKS PRESENT IN THE FLOW MODEL =    41

 MAXIMUM STEPSIZE WHICH MEETS STABILITY CRITERION OF THE SINK & SOURCE TERM
 =  128.6    (WHEN MIN. R.F.=1)  AT K=   1, I=   5, J=   5

 MAXIMUM STEPSIZE WHICH MEETS STABILITY CRITERION OF THE DISPERSION TERM
 =  384.7    (WHEN MIN. R.F.=1)  AT K=   1, I=   5, J=   5


     1 CALLS TO GCG PACKAGE FOR TRANSPORT TIME STEP   1 IN FLOW TIME STEP  78 STRESS PERIOD   4
     2 TOTAL ITERATIONS
  MAXIMUM CONCENTRATION CHANGES FOR EACH ITERATION:
  MAX. CHANGE LAYER,ROW,COL MAX. CHANGE LAYER,ROW,COL MAX. CHANGE LAYER,ROW,COL MAX. CHANGE LAYER,ROW,COL MAX. CHANGE LAYER,ROW,COL
 ------------------------------------------------------------------------------------------------------------------------------------
   0.9283E-03 (  1,  5,  5)  0.4441E-15 (  1,  2,  8)


                                          ================================================
                                                         TIME STEP NO.  079
                                          ================================================

 FROM TIME =   279.00     TO    280.00    


                    "THKSAT          " FLOW TERMS FOR TIME STEP 79, STRESS PERIOD  4 READ UNFORMATTED ON UNIT 10
                    --------------------------------------------------------------------------------------------

                    "QXX             " FLOW TERMS FOR TIME STEP 79, STRESS PERIOD  4 READ UNFORMATTED ON UNIT 10
                    --------------------------------------------------------------------------------------------

                    "QYY             " FLOW TERMS FOR TIME STEP 79, STRESS PERIOD  4 READ UNFORMATTED ON UNIT 10
                    --------------------------------------------------------------------------------------------

                    "QZZ             " FLOW TERMS FOR TIME STEP 79, STRESS PERIOD  4 READ UNFORMATTED ON UNIT 10
                    --------------------------------------------------------------------------------------------

                    "STO             " FLOW TERMS FOR TIME STEP 79, STRESS PERIOD  4 READ UNFORMATTED ON UNIT 10
                    --------------------------------------------------------------------------------------------

 MAXIMUM STEPSIZE DURING WHICH ANY PARTICLE CANNOT MOVE MORE THAN ONE CELL
 =  601.1    (WHEN MIN. R.F.=1)  AT K=   2, I=   5, J=   5

 MAXIMUM STEPSIZE WHICH MEETS STABILITY CRITERION OF THE ADVECTION TERM
 (FOR PURE FINITE-DIFFERENCE OPTION, MIXELM=0) 
 =  189.0    (WHEN MIN. R.F.=1)  AT K=   2, I=   5, J=   5

                    "CNH             " FLOW TERMS FOR TIME STEP 79, STRESS PERIOD  4 READ UNFORMATTED ON UNIT 10
                    --------------------------------------------------------------------------------------------

                    "WEL             " FLOW TERMS FOR TIME STEP 79, STRESS PERIOD  4 READ UNFORMATTED ON UNIT 10
                    --------------------------------------------------------------------------------------------

                    "GHB             " FLOW TERMS FOR TIME STEP 79, STRESS PERIOD  4 READ UNFORMATTED ON UNIT 10
                    --------------------------------------------------------------------------------------------


 TOTAL NUMBER OF POINT SOURCES/SINKS PRESENT IN THE FLOW MODEL =    41

 MAXIMUM STEPSIZE WHICH MEETS STABILITY CRITERION OF THE SINK & SOURCE TERM
 =  128.6    (WHEN MIN. R.F.=1)  AT K=   1, I=   5, J=   5

 MAXIMUM STEPSIZE WHICH MEETS STABILITY CRITERION OF THE DISPERSION TERM
 =  384.7    (WHEN MIN. R.F.=1)  AT K=   1, I=   5, J=   5


     1 CALLS TO GCG PACKAGE FOR TRANSPORT TIME STEP   1 IN FLOW TIME STEP  79 STRESS PERIOD   4
     2 TOTAL ITERATIONS
  MAXIMUM CONCENTRATION CHANGES FOR EACH ITERATION:
  MAX. CHANGE LAYER,ROW,COL MAX. CHANGE LAYER,ROW,COL MAX. CHANGE LAYER,ROW,COL MAX. CHANGE LAYER,ROW,COL MAX. CHANGE LAYER,ROW,COL
 ------------------------------------------------------------------------------------------------------------------------------------
   0.9216E-03 (  1,  5,  5)  0.4441E-15 (  1,  2,  8)


                                          ================================================
                                                         TIME STEP NO.  080
                                          ================================================

 FROM TIME =   280.00     TO    281.00    


                    "THKSAT          " FLOW TERMS FOR TIME STEP 80, STRESS PERIOD  4 READ UNFORMATTED ON UNIT 10
                    --------------------------------------------------------------------------------------------

                    "QXX             " FLOW TERMS FOR TIME STEP 80, STRESS PERIOD  4 READ UNFORMATTED ON UNIT 10
                    --------------------------------------------------------------------------------------------

                    "QYY             " FLOW TERMS FOR TIME STEP 80, STRESS PERIOD  4 READ UNFORMATTED ON UNIT 10
                    --------------------------------------------------------------------------------------------

                    "QZZ             " FLOW TERMS FOR TIME STEP 80, STRESS PERIOD  4 READ UNFORMATTED ON UNIT 10
                    --------------------------------------------------------------------------------------------

                    "STO             " FLOW TERMS FOR TIME STEP 80, STRESS PERIOD  4 READ UNFORMATTED ON UNIT 10
                    --------------------------------------------------------------------------------------------

 MAXIMUM STEPSIZE DURING WHICH ANY PARTICLE CANNOT MOVE MORE THAN ONE CELL
 =  601.1    (WHEN MIN. R.F.=1)  AT K=   2, I=   5, J=   5

 MAXIMUM STEPSIZE WHICH MEETS STABILITY CRITERION OF THE ADVECTION TERM
 (FOR PURE FINITE-DIFFERENCE OPTION, MIXELM=0) 
 =  188.9    (WHEN MIN. R.F.=1)  AT K=   2, I=   5, J=   5

                    "CNH             " FLOW TERMS FOR TIME STEP 80, STRESS PERIOD  4 READ UNFORMATTED ON UNIT 10
                    --------------------------------------------------------------------------------------------

                    "WEL             " FLOW TERMS FOR TIME STEP 80, STRESS PERIOD  4 READ UNFORMATTED ON UNIT 10
                    --------------------------------------------------------------------------------------------

                    "GHB             " FLOW TERMS FOR TIME STEP 80, STRESS PERIOD  4 READ UNFORMATTED ON UNIT 10
                    --------------------------------------------------------------------------------------------


 TOTAL NUMBER OF POINT SOURCES/SINKS PRESENT IN THE FLOW MODEL =    41

 MAXIMUM STEPSIZE WHICH MEETS STABILITY CRITERION OF THE SINK & SOURCE TERM
 =  128.6    (WHEN MIN. R.F.=1)  AT K=   1, I=   5, J=   5

 MAXIMUM STEPSIZE WHICH MEETS STABILITY CRITERION OF THE DISPERSION TERM
 =  384.7    (WHEN MIN. R.F.=1)  AT K=   1, I=   5, J=   5


     1 CALLS TO GCG PACKAGE FOR TRANSPORT TIME STEP   1 IN FLOW TIME STEP  80 STRESS PERIOD   4
     2 TOTAL ITERATIONS
  MAXIMUM CONCENTRATION CHANGES FOR EACH ITERATION:
  MAX. CHANGE LAYER,ROW,COL MAX. CHANGE LAYER,ROW,COL MAX. CHANGE LAYER,ROW,COL MAX. CHANGE LAYER,ROW,COL MAX. CHANGE LAYER,ROW,COL
 ------------------------------------------------------------------------------------------------------------------------------------
   0.9125E-03 (  1,  5,  5)  0.4441E-15 (  1,  2,  8)


                                          ================================================
                                                         TIME STEP NO.  081
                                          ================================================

 FROM TIME =   281.00     TO    282.00    


                    "THKSAT          " FLOW TERMS FOR TIME STEP 81, STRESS PERIOD  4 READ UNFORMATTED ON UNIT 10
                    --------------------------------------------------------------------------------------------

                    "QXX             " FLOW TERMS FOR TIME STEP 81, STRESS PERIOD  4 READ UNFORMATTED ON UNIT 10
                    --------------------------------------------------------------------------------------------

                    "QYY             " FLOW TERMS FOR TIME STEP 81, STRESS PERIOD  4 READ UNFORMATTED ON UNIT 10
                    --------------------------------------------------------------------------------------------

                    "QZZ             " FLOW TERMS FOR TIME STEP 81, STRESS PERIOD  4 READ UNFORMATTED ON UNIT 10
                    --------------------------------------------------------------------------------------------

                    "STO             " FLOW TERMS FOR TIME STEP 81, STRESS PERIOD  4 READ UNFORMATTED ON UNIT 10
                    --------------------------------------------------------------------------------------------

 MAXIMUM STEPSIZE DURING WHICH ANY PARTICLE CANNOT MOVE MORE THAN ONE CELL
 =  601.1    (WHEN MIN. R.F.=1)  AT K=   2, I=   5, J=   5

 MAXIMUM STEPSIZE WHICH MEETS STABILITY CRITERION OF THE ADVECTION TERM
 (FOR PURE FINITE-DIFFERENCE OPTION, MIXELM=0) 
 =  188.9    (WHEN MIN. R.F.=1)  AT K=   2, I=   5, J=   5

                    "CNH             " FLOW TERMS FOR TIME STEP 81, STRESS PERIOD  4 READ UNFORMATTED ON UNIT 10
                    --------------------------------------------------------------------------------------------

                    "WEL             " FLOW TERMS FOR TIME STEP 81, STRESS PERIOD  4 READ UNFORMATTED ON UNIT 10
                    --------------------------------------------------------------------------------------------

                    "GHB             " FLOW TERMS FOR TIME STEP 81, STRESS PERIOD  4 READ UNFORMATTED ON UNIT 10
                    --------------------------------------------------------------------------------------------


 TOTAL NUMBER OF POINT SOURCES/SINKS PRESENT IN THE FLOW MODEL =    41

 MAXIMUM STEPSIZE WHICH MEETS STABILITY CRITERION OF THE SINK & SOURCE TERM
 =  128.6    (WHEN MIN. R.F.=1)  AT K=   1, I=   5, J=   5

 MAXIMUM STEPSIZE WHICH MEETS STABILITY CRITERION OF THE DISPERSION TERM
 =  384.7    (WHEN MIN. R.F.=1)  AT K=   1, I=   5, J=   5


     1 CALLS TO GCG PACKAGE FOR TRANSPORT TIME STEP   1 IN FLOW TIME STEP  81 STRESS PERIOD   4
     2 TOTAL ITERATIONS
  MAXIMUM CONCENTRATION CHANGES FOR EACH ITERATION:
  MAX. CHANGE LAYER,ROW,COL MAX. CHANGE LAYER,ROW,COL MAX. CHANGE LAYER,ROW,COL MAX. CHANGE LAYER,ROW,COL MAX. CHANGE LAYER,ROW,COL
 ------------------------------------------------------------------------------------------------------------------------------------
   0.9037E-03 (  1,  5,  5)  0.4441E-15 (  1,  2,  8)


                                          ================================================
                                                         TIME STEP NO.  082
                                          ================================================

 FROM TIME =   282.00     TO    283.00    


                    "THKSAT          " FLOW TERMS FOR TIME STEP 82, STRESS PERIOD  4 READ UNFORMATTED ON UNIT 10
                    --------------------------------------------------------------------------------------------

                    "QXX             " FLOW TERMS FOR TIME STEP 82, STRESS PERIOD  4 READ UNFORMATTED ON UNIT 10
                    --------------------------------------------------------------------------------------------

                    "QYY             " FLOW TERMS FOR TIME STEP 82, STRESS PERIOD  4 READ UNFORMATTED ON UNIT 10
                    --------------------------------------------------------------------------------------------

                    "QZZ             " FLOW TERMS FOR TIME STEP 82, STRESS PERIOD  4 READ UNFORMATTED ON UNIT 10
                    --------------------------------------------------------------------------------------------

                    "STO             " FLOW TERMS FOR TIME STEP 82, STRESS PERIOD  4 READ UNFORMATTED ON UNIT 10
                    --------------------------------------------------------------------------------------------

 MAXIMUM STEPSIZE DURING WHICH ANY PARTICLE CANNOT MOVE MORE THAN ONE CELL
 =  601.1    (WHEN MIN. R.F.=1)  AT K=   2, I=   5, J=   5

 MAXIMUM STEPSIZE WHICH MEETS STABILITY CRITERION OF THE ADVECTION TERM
 (FOR PURE FINITE-DIFFERENCE OPTION, MIXELM=0) 
 =  188.9    (WHEN MIN. R.F.=1)  AT K=   2, I=   5, J=   5

                    "CNH             " FLOW TERMS FOR TIME STEP 82, STRESS PERIOD  4 READ UNFORMATTED ON UNIT 10
                    --------------------------------------------------------------------------------------------

                    "WEL             " FLOW TERMS FOR TIME STEP 82, STRESS PERIOD  4 READ UNFORMATTED ON UNIT 10
                    --------------------------------------------------------------------------------------------

                    "GHB             " FLOW TERMS FOR TIME STEP 82, STRESS PERIOD  4 READ UNFORMATTED ON UNIT 10
                    --------------------------------------------------------------------------------------------


 TOTAL NUMBER OF POINT SOURCES/SINKS PRESENT IN THE FLOW MODEL =    41

 MAXIMUM STEPSIZE WHICH MEETS STABILITY CRITERION OF THE SINK & SOURCE TERM
 =  128.6    (WHEN MIN. R.F.=1)  AT K=   1, I=   5, J=   5

 MAXIMUM STEPSIZE WHICH MEETS STABILITY CRITERION OF THE DISPERSION TERM
 =  384.8    (WHEN MIN. R.F.=1)  AT K=   1, I=   5, J=   5


     1 CALLS TO GCG PACKAGE FOR TRANSPORT TIME STEP   1 IN FLOW TIME STEP  82 STRESS PERIOD   4
     2 TOTAL ITERATIONS
  MAXIMUM CONCENTRATION CHANGES FOR EACH ITERATION:
  MAX. CHANGE LAYER,ROW,COL MAX. CHANGE LAYER,ROW,COL MAX. CHANGE LAYER,ROW,COL MAX. CHANGE LAYER,ROW,COL MAX. CHANGE LAYER,ROW,COL
 ------------------------------------------------------------------------------------------------------------------------------------
   0.8948E-03 (  1,  5,  5)  0.4441E-15 (  1,  2,  8)


                                          ================================================
                                                         TIME STEP NO.  083
                                          ================================================

 FROM TIME =   283.00     TO    284.00    


                    "THKSAT          " FLOW TERMS FOR TIME STEP 83, STRESS PERIOD  4 READ UNFORMATTED ON UNIT 10
                    --------------------------------------------------------------------------------------------

                    "QXX             " FLOW TERMS FOR TIME STEP 83, STRESS PERIOD  4 READ UNFORMATTED ON UNIT 10
                    --------------------------------------------------------------------------------------------

                    "QYY             " FLOW TERMS FOR TIME STEP 83, STRESS PERIOD  4 READ UNFORMATTED ON UNIT 10
                    --------------------------------------------------------------------------------------------

                    "QZZ             " FLOW TERMS FOR TIME STEP 83, STRESS PERIOD  4 READ UNFORMATTED ON UNIT 10
                    --------------------------------------------------------------------------------------------

                    "STO             " FLOW TERMS FOR TIME STEP 83, STRESS PERIOD  4 READ UNFORMATTED ON UNIT 10
                    --------------------------------------------------------------------------------------------

 MAXIMUM STEPSIZE DURING WHICH ANY PARTICLE CANNOT MOVE MORE THAN ONE CELL
 =  601.1    (WHEN MIN. R.F.=1)  AT K=   2, I=   5, J=   5

 MAXIMUM STEPSIZE WHICH MEETS STABILITY CRITERION OF THE ADVECTION TERM
 (FOR PURE FINITE-DIFFERENCE OPTION, MIXELM=0) 
 =  188.9    (WHEN MIN. R.F.=1)  AT K=   2, I=   5, J=   5

                    "CNH             " FLOW TERMS FOR TIME STEP 83, STRESS PERIOD  4 READ UNFORMATTED ON UNIT 10
                    --------------------------------------------------------------------------------------------

                    "WEL             " FLOW TERMS FOR TIME STEP 83, STRESS PERIOD  4 READ UNFORMATTED ON UNIT 10
                    --------------------------------------------------------------------------------------------

                    "GHB             " FLOW TERMS FOR TIME STEP 83, STRESS PERIOD  4 READ UNFORMATTED ON UNIT 10
                    --------------------------------------------------------------------------------------------


 TOTAL NUMBER OF POINT SOURCES/SINKS PRESENT IN THE FLOW MODEL =    41

 MAXIMUM STEPSIZE WHICH MEETS STABILITY CRITERION OF THE SINK & SOURCE TERM
 =  128.6    (WHEN MIN. R.F.=1)  AT K=   1, I=   5, J=   5

 MAXIMUM STEPSIZE WHICH MEETS STABILITY CRITERION OF THE DISPERSION TERM
 =  384.8    (WHEN MIN. R.F.=1)  AT K=   1, I=   5, J=   5


     1 CALLS TO GCG PACKAGE FOR TRANSPORT TIME STEP   1 IN FLOW TIME STEP  83 STRESS PERIOD   4
     2 TOTAL ITERATIONS
  MAXIMUM CONCENTRATION CHANGES FOR EACH ITERATION:
  MAX. CHANGE LAYER,ROW,COL MAX. CHANGE LAYER,ROW,COL MAX. CHANGE LAYER,ROW,COL MAX. CHANGE LAYER,ROW,COL MAX. CHANGE LAYER,ROW,COL
 ------------------------------------------------------------------------------------------------------------------------------------
   0.8860E-03 (  1,  5,  5)  0.4441E-15 (  1,  2,  8)


                                          ================================================
                                                         TIME STEP NO.  084
                                          ================================================

 FROM TIME =   284.00     TO    285.00    


                    "THKSAT          " FLOW TERMS FOR TIME STEP 84, STRESS PERIOD  4 READ UNFORMATTED ON UNIT 10
                    --------------------------------------------------------------------------------------------

                    "QXX             " FLOW TERMS FOR TIME STEP 84, STRESS PERIOD  4 READ UNFORMATTED ON UNIT 10
                    --------------------------------------------------------------------------------------------

                    "QYY             " FLOW TERMS FOR TIME STEP 84, STRESS PERIOD  4 READ UNFORMATTED ON UNIT 10
                    --------------------------------------------------------------------------------------------

                    "QZZ             " FLOW TERMS FOR TIME STEP 84, STRESS PERIOD  4 READ UNFORMATTED ON UNIT 10
                    --------------------------------------------------------------------------------------------

                    "STO             " FLOW TERMS FOR TIME STEP 84, STRESS PERIOD  4 READ UNFORMATTED ON UNIT 10
                    --------------------------------------------------------------------------------------------

 MAXIMUM STEPSIZE DURING WHICH ANY PARTICLE CANNOT MOVE MORE THAN ONE CELL
 =  601.1    (WHEN MIN. R.F.=1)  AT K=   2, I=   5, J=   5

 MAXIMUM STEPSIZE WHICH MEETS STABILITY CRITERION OF THE ADVECTION TERM
 (FOR PURE FINITE-DIFFERENCE OPTION, MIXELM=0) 
 =  188.9    (WHEN MIN. R.F.=1)  AT K=   2, I=   5, J=   5

                    "CNH             " FLOW TERMS FOR TIME STEP 84, STRESS PERIOD  4 READ UNFORMATTED ON UNIT 10
                    --------------------------------------------------------------------------------------------

                    "WEL             " FLOW TERMS FOR TIME STEP 84, STRESS PERIOD  4 READ UNFORMATTED ON UNIT 10
                    --------------------------------------------------------------------------------------------

                    "GHB             " FLOW TERMS FOR TIME STEP 84, STRESS PERIOD  4 READ UNFORMATTED ON UNIT 10
                    --------------------------------------------------------------------------------------------


 TOTAL NUMBER OF POINT SOURCES/SINKS PRESENT IN THE FLOW MODEL =    41

 MAXIMUM STEPSIZE WHICH MEETS STABILITY CRITERION OF THE SINK & SOURCE TERM
 =  128.6    (WHEN MIN. R.F.=1)  AT K=   1, I=   5, J=   5

 MAXIMUM STEPSIZE WHICH MEETS STABILITY CRITERION OF THE DISPERSION TERM
 =  384.8    (WHEN MIN. R.F.=1)  AT K=   1, I=   5, J=   5


     1 CALLS TO GCG PACKAGE FOR TRANSPORT TIME STEP   1 IN FLOW TIME STEP  84 STRESS PERIOD   4
     2 TOTAL ITERATIONS
  MAXIMUM CONCENTRATION CHANGES FOR EACH ITERATION:
  MAX. CHANGE LAYER,ROW,COL MAX. CHANGE LAYER,ROW,COL MAX. CHANGE LAYER,ROW,COL MAX. CHANGE LAYER,ROW,COL MAX. CHANGE LAYER,ROW,COL
 ------------------------------------------------------------------------------------------------------------------------------------
   0.8775E-03 (  1,  5,  5)  0.4441E-15 (  1,  2,  8)


                                          ================================================
                                                         TIME STEP NO.  085
                                          ================================================

 FROM TIME =   285.00     TO    286.00    


                    "THKSAT          " FLOW TERMS FOR TIME STEP 85, STRESS PERIOD  4 READ UNFORMATTED ON UNIT 10
                    --------------------------------------------------------------------------------------------

                    "QXX             " FLOW TERMS FOR TIME STEP 85, STRESS PERIOD  4 READ UNFORMATTED ON UNIT 10
                    --------------------------------------------------------------------------------------------

                    "QYY             " FLOW TERMS FOR TIME STEP 85, STRESS PERIOD  4 READ UNFORMATTED ON UNIT 10
                    --------------------------------------------------------------------------------------------

                    "QZZ             " FLOW TERMS FOR TIME STEP 85, STRESS PERIOD  4 READ UNFORMATTED ON UNIT 10
                    --------------------------------------------------------------------------------------------

                    "STO             " FLOW TERMS FOR TIME STEP 85, STRESS PERIOD  4 READ UNFORMATTED ON UNIT 10
                    --------------------------------------------------------------------------------------------

 MAXIMUM STEPSIZE DURING WHICH ANY PARTICLE CANNOT MOVE MORE THAN ONE CELL
 =  601.1    (WHEN MIN. R.F.=1)  AT K=   2, I=   5, J=   5

 MAXIMUM STEPSIZE WHICH MEETS STABILITY CRITERION OF THE ADVECTION TERM
 (FOR PURE FINITE-DIFFERENCE OPTION, MIXELM=0) 
 =  188.9    (WHEN MIN. R.F.=1)  AT K=   2, I=   5, J=   5

                    "CNH             " FLOW TERMS FOR TIME STEP 85, STRESS PERIOD  4 READ UNFORMATTED ON UNIT 10
                    --------------------------------------------------------------------------------------------

                    "WEL             " FLOW TERMS FOR TIME STEP 85, STRESS PERIOD  4 READ UNFORMATTED ON UNIT 10
                    --------------------------------------------------------------------------------------------

                    "GHB             " FLOW TERMS FOR TIME STEP 85, STRESS PERIOD  4 READ UNFORMATTED ON UNIT 10
                    --------------------------------------------------------------------------------------------


 TOTAL NUMBER OF POINT SOURCES/SINKS PRESENT IN THE FLOW MODEL =    41

 MAXIMUM STEPSIZE WHICH MEETS STABILITY CRITERION OF THE SINK & SOURCE TERM
 =  128.6    (WHEN MIN. R.F.=1)  AT K=   1, I=   5, J=   5

 MAXIMUM STEPSIZE WHICH MEETS STABILITY CRITERION OF THE DISPERSION TERM
 =  384.8    (WHEN MIN. R.F.=1)  AT K=   1, I=   5, J=   5


     1 CALLS TO GCG PACKAGE FOR TRANSPORT TIME STEP   1 IN FLOW TIME STEP  85 STRESS PERIOD   4
     2 TOTAL ITERATIONS
  MAXIMUM CONCENTRATION CHANGES FOR EACH ITERATION:
  MAX. CHANGE LAYER,ROW,COL MAX. CHANGE LAYER,ROW,COL MAX. CHANGE LAYER,ROW,COL MAX. CHANGE LAYER,ROW,COL MAX. CHANGE LAYER,ROW,COL
 ------------------------------------------------------------------------------------------------------------------------------------
   0.8692E-03 (  1,  5,  5)  0.4441E-15 (  1,  2,  8)


                                          ================================================
                                                         TIME STEP NO.  086
                                          ================================================

 FROM TIME =   286.00     TO    287.00    


                    "THKSAT          " FLOW TERMS FOR TIME STEP 86, STRESS PERIOD  4 READ UNFORMATTED ON UNIT 10
                    --------------------------------------------------------------------------------------------

                    "QXX             " FLOW TERMS FOR TIME STEP 86, STRESS PERIOD  4 READ UNFORMATTED ON UNIT 10
                    --------------------------------------------------------------------------------------------

                    "QYY             " FLOW TERMS FOR TIME STEP 86, STRESS PERIOD  4 READ UNFORMATTED ON UNIT 10
                    --------------------------------------------------------------------------------------------

                    "QZZ             " FLOW TERMS FOR TIME STEP 86, STRESS PERIOD  4 READ UNFORMATTED ON UNIT 10
                    --------------------------------------------------------------------------------------------

                    "STO             " FLOW TERMS FOR TIME STEP 86, STRESS PERIOD  4 READ UNFORMATTED ON UNIT 10
                    --------------------------------------------------------------------------------------------

 MAXIMUM STEPSIZE DURING WHICH ANY PARTICLE CANNOT MOVE MORE THAN ONE CELL
 =  601.1    (WHEN MIN. R.F.=1)  AT K=   2, I=   5, J=   5

 MAXIMUM STEPSIZE WHICH MEETS STABILITY CRITERION OF THE ADVECTION TERM
 (FOR PURE FINITE-DIFFERENCE OPTION, MIXELM=0) 
 =  188.9    (WHEN MIN. R.F.=1)  AT K=   2, I=   5, J=   5

                    "CNH             " FLOW TERMS FOR TIME STEP 86, STRESS PERIOD  4 READ UNFORMATTED ON UNIT 10
                    --------------------------------------------------------------------------------------------

                    "WEL             " FLOW TERMS FOR TIME STEP 86, STRESS PERIOD  4 READ UNFORMATTED ON UNIT 10
                    --------------------------------------------------------------------------------------------

                    "GHB             " FLOW TERMS FOR TIME STEP 86, STRESS PERIOD  4 READ UNFORMATTED ON UNIT 10
                    --------------------------------------------------------------------------------------------


 TOTAL NUMBER OF POINT SOURCES/SINKS PRESENT IN THE FLOW MODEL =    41

 MAXIMUM STEPSIZE WHICH MEETS STABILITY CRITERION OF THE SINK & SOURCE TERM
 =  128.6    (WHEN MIN. R.F.=1)  AT K=   1, I=   5, J=   5

 MAXIMUM STEPSIZE WHICH MEETS STABILITY CRITERION OF THE DISPERSION TERM
 =  384.8    (WHEN MIN. R.F.=1)  AT K=   1, I=   5, J=   5


     1 CALLS TO GCG PACKAGE FOR TRANSPORT TIME STEP   1 IN FLOW TIME STEP  86 STRESS PERIOD   4
     2 TOTAL ITERATIONS
  MAXIMUM CONCENTRATION CHANGES FOR EACH ITERATION:
  MAX. CHANGE LAYER,ROW,COL MAX. CHANGE LAYER,ROW,COL MAX. CHANGE LAYER,ROW,COL MAX. CHANGE LAYER,ROW,COL MAX. CHANGE LAYER,ROW,COL
 ------------------------------------------------------------------------------------------------------------------------------------
   0.8606E-03 (  1,  5,  5)  0.4441E-15 (  1,  2,  8)


                                          ================================================
                                                         TIME STEP NO.  087
                                          ================================================

 FROM TIME =   287.00     TO    288.00    


                    "THKSAT          " FLOW TERMS FOR TIME STEP 87, STRESS PERIOD  4 READ UNFORMATTED ON UNIT 10
                    --------------------------------------------------------------------------------------------

                    "QXX             " FLOW TERMS FOR TIME STEP 87, STRESS PERIOD  4 READ UNFORMATTED ON UNIT 10
                    --------------------------------------------------------------------------------------------

                    "QYY             " FLOW TERMS FOR TIME STEP 87, STRESS PERIOD  4 READ UNFORMATTED ON UNIT 10
                    --------------------------------------------------------------------------------------------

                    "QZZ             " FLOW TERMS FOR TIME STEP 87, STRESS PERIOD  4 READ UNFORMATTED ON UNIT 10
                    --------------------------------------------------------------------------------------------

                    "STO             " FLOW TERMS FOR TIME STEP 87, STRESS PERIOD  4 READ UNFORMATTED ON UNIT 10
                    --------------------------------------------------------------------------------------------

 MAXIMUM STEPSIZE DURING WHICH ANY PARTICLE CANNOT MOVE MORE THAN ONE CELL
 =  601.1    (WHEN MIN. R.F.=1)  AT K=   2, I=   5, J=   5

 MAXIMUM STEPSIZE WHICH MEETS STABILITY CRITERION OF THE ADVECTION TERM
 (FOR PURE FINITE-DIFFERENCE OPTION, MIXELM=0) 
 =  188.9    (WHEN MIN. R.F.=1)  AT K=   2, I=   5, J=   5

                    "CNH             " FLOW TERMS FOR TIME STEP 87, STRESS PERIOD  4 READ UNFORMATTED ON UNIT 10
                    --------------------------------------------------------------------------------------------

                    "WEL             " FLOW TERMS FOR TIME STEP 87, STRESS PERIOD  4 READ UNFORMATTED ON UNIT 10
                    --------------------------------------------------------------------------------------------

                    "GHB             " FLOW TERMS FOR TIME STEP 87, STRESS PERIOD  4 READ UNFORMATTED ON UNIT 10
                    --------------------------------------------------------------------------------------------


 TOTAL NUMBER OF POINT SOURCES/SINKS PRESENT IN THE FLOW MODEL =    41

 MAXIMUM STEPSIZE WHICH MEETS STABILITY CRITERION OF THE SINK & SOURCE TERM
 =  128.6    (WHEN MIN. R.F.=1)  AT K=   1, I=   5, J=   5

 MAXIMUM STEPSIZE WHICH MEETS STABILITY CRITERION OF THE DISPERSION TERM
 =  384.8    (WHEN MIN. R.F.=1)  AT K=   1, I=   5, J=   5


     1 CALLS TO GCG PACKAGE FOR TRANSPORT TIME STEP   1 IN FLOW TIME STEP  87 STRESS PERIOD   4
     2 TOTAL ITERATIONS
  MAXIMUM CONCENTRATION CHANGES FOR EACH ITERATION:
  MAX. CHANGE LAYER,ROW,COL MAX. CHANGE LAYER,ROW,COL MAX. CHANGE LAYER,ROW,COL MAX. CHANGE LAYER,ROW,COL MAX. CHANGE LAYER,ROW,COL
 ------------------------------------------------------------------------------------------------------------------------------------
   0.8522E-03 (  1,  5,  5)  0.4441E-15 (  1,  2,  8)


                                          ================================================
                                                         TIME STEP NO.  088
                                          ================================================

 FROM TIME =   288.00     TO    289.00    


                    "THKSAT          " FLOW TERMS FOR TIME STEP 88, STRESS PERIOD  4 READ UNFORMATTED ON UNIT 10
                    --------------------------------------------------------------------------------------------

                    "QXX             " FLOW TERMS FOR TIME STEP 88, STRESS PERIOD  4 READ UNFORMATTED ON UNIT 10
                    --------------------------------------------------------------------------------------------

                    "QYY             " FLOW TERMS FOR TIME STEP 88, STRESS PERIOD  4 READ UNFORMATTED ON UNIT 10
                    --------------------------------------------------------------------------------------------

                    "QZZ             " FLOW TERMS FOR TIME STEP 88, STRESS PERIOD  4 READ UNFORMATTED ON UNIT 10
                    --------------------------------------------------------------------------------------------

                    "STO             " FLOW TERMS FOR TIME STEP 88, STRESS PERIOD  4 READ UNFORMATTED ON UNIT 10
                    --------------------------------------------------------------------------------------------

 MAXIMUM STEPSIZE DURING WHICH ANY PARTICLE CANNOT MOVE MORE THAN ONE CELL
 =  601.0    (WHEN MIN. R.F.=1)  AT K=   2, I=   5, J=   5

 MAXIMUM STEPSIZE WHICH MEETS STABILITY CRITERION OF THE ADVECTION TERM
 (FOR PURE FINITE-DIFFERENCE OPTION, MIXELM=0) 
 =  188.8    (WHEN MIN. R.F.=1)  AT K=   2, I=   5, J=   5

                    "CNH             " FLOW TERMS FOR TIME STEP 88, STRESS PERIOD  4 READ UNFORMATTED ON UNIT 10
                    --------------------------------------------------------------------------------------------

                    "WEL             " FLOW TERMS FOR TIME STEP 88, STRESS PERIOD  4 READ UNFORMATTED ON UNIT 10
                    --------------------------------------------------------------------------------------------

                    "GHB             " FLOW TERMS FOR TIME STEP 88, STRESS PERIOD  4 READ UNFORMATTED ON UNIT 10
                    --------------------------------------------------------------------------------------------


 TOTAL NUMBER OF POINT SOURCES/SINKS PRESENT IN THE FLOW MODEL =    41

 MAXIMUM STEPSIZE WHICH MEETS STABILITY CRITERION OF THE SINK & SOURCE TERM
 =  128.6    (WHEN MIN. R.F.=1)  AT K=   1, I=   5, J=   5

 MAXIMUM STEPSIZE WHICH MEETS STABILITY CRITERION OF THE DISPERSION TERM
 =  384.8    (WHEN MIN. R.F.=1)  AT K=   1, I=   5, J=   5


     1 CALLS TO GCG PACKAGE FOR TRANSPORT TIME STEP   1 IN FLOW TIME STEP  88 STRESS PERIOD   4
     2 TOTAL ITERATIONS
  MAXIMUM CONCENTRATION CHANGES FOR EACH ITERATION:
  MAX. CHANGE LAYER,ROW,COL MAX. CHANGE LAYER,ROW,COL MAX. CHANGE LAYER,ROW,COL MAX. CHANGE LAYER,ROW,COL MAX. CHANGE LAYER,ROW,COL
 ------------------------------------------------------------------------------------------------------------------------------------
   0.8441E-03 (  1,  5,  5)  0.4441E-15 (  1,  2,  8)


                                          ================================================
                                                         TIME STEP NO.  089
                                          ================================================

 FROM TIME =   289.00     TO    290.00    


                    "THKSAT          " FLOW TERMS FOR TIME STEP 89, STRESS PERIOD  4 READ UNFORMATTED ON UNIT 10
                    --------------------------------------------------------------------------------------------

                    "QXX             " FLOW TERMS FOR TIME STEP 89, STRESS PERIOD  4 READ UNFORMATTED ON UNIT 10
                    --------------------------------------------------------------------------------------------

                    "QYY             " FLOW TERMS FOR TIME STEP 89, STRESS PERIOD  4 READ UNFORMATTED ON UNIT 10
                    --------------------------------------------------------------------------------------------

                    "QZZ             " FLOW TERMS FOR TIME STEP 89, STRESS PERIOD  4 READ UNFORMATTED ON UNIT 10
                    --------------------------------------------------------------------------------------------

                    "STO             " FLOW TERMS FOR TIME STEP 89, STRESS PERIOD  4 READ UNFORMATTED ON UNIT 10
                    --------------------------------------------------------------------------------------------

 MAXIMUM STEPSIZE DURING WHICH ANY PARTICLE CANNOT MOVE MORE THAN ONE CELL
 =  601.0    (WHEN MIN. R.F.=1)  AT K=   2, I=   5, J=   5

 MAXIMUM STEPSIZE WHICH MEETS STABILITY CRITERION OF THE ADVECTION TERM
 (FOR PURE FINITE-DIFFERENCE OPTION, MIXELM=0) 
 =  188.8    (WHEN MIN. R.F.=1)  AT K=   2, I=   5, J=   5

                    "CNH             " FLOW TERMS FOR TIME STEP 89, STRESS PERIOD  4 READ UNFORMATTED ON UNIT 10
                    --------------------------------------------------------------------------------------------

                    "WEL             " FLOW TERMS FOR TIME STEP 89, STRESS PERIOD  4 READ UNFORMATTED ON UNIT 10
                    --------------------------------------------------------------------------------------------

                    "GHB             " FLOW TERMS FOR TIME STEP 89, STRESS PERIOD  4 READ UNFORMATTED ON UNIT 10
                    --------------------------------------------------------------------------------------------


 TOTAL NUMBER OF POINT SOURCES/SINKS PRESENT IN THE FLOW MODEL =    41

 MAXIMUM STEPSIZE WHICH MEETS STABILITY CRITERION OF THE SINK & SOURCE TERM
 =  128.6    (WHEN MIN. R.F.=1)  AT K=   1, I=   5, J=   5

 MAXIMUM STEPSIZE WHICH MEETS STABILITY CRITERION OF THE DISPERSION TERM
 =  384.8    (WHEN MIN. R.F.=1)  AT K=   1, I=   5, J=   5


     1 CALLS TO GCG PACKAGE FOR TRANSPORT TIME STEP   1 IN FLOW TIME STEP  89 STRESS PERIOD   4
     2 TOTAL ITERATIONS
  MAXIMUM CONCENTRATION CHANGES FOR EACH ITERATION:
  MAX. CHANGE LAYER,ROW,COL MAX. CHANGE LAYER,ROW,COL MAX. CHANGE LAYER,ROW,COL MAX. CHANGE LAYER,ROW,COL MAX. CHANGE LAYER,ROW,COL
 ------------------------------------------------------------------------------------------------------------------------------------
   0.8363E-03 (  1,  5,  5)  0.4441E-15 (  1,  2,  8)


                                          ================================================
                                                         TIME STEP NO.  090
                                          ================================================

 FROM TIME =   290.00     TO    291.00    


                    "THKSAT          " FLOW TERMS FOR TIME STEP 90, STRESS PERIOD  4 READ UNFORMATTED ON UNIT 10
                    --------------------------------------------------------------------------------------------

                    "QXX             " FLOW TERMS FOR TIME STEP 90, STRESS PERIOD  4 READ UNFORMATTED ON UNIT 10
                    --------------------------------------------------------------------------------------------

                    "QYY             " FLOW TERMS FOR TIME STEP 90, STRESS PERIOD  4 READ UNFORMATTED ON UNIT 10
                    --------------------------------------------------------------------------------------------

                    "QZZ             " FLOW TERMS FOR TIME STEP 90, STRESS PERIOD  4 READ UNFORMATTED ON UNIT 10
                    --------------------------------------------------------------------------------------------

                    "STO             " FLOW TERMS FOR TIME STEP 90, STRESS PERIOD  4 READ UNFORMATTED ON UNIT 10
                    --------------------------------------------------------------------------------------------

 MAXIMUM STEPSIZE DURING WHICH ANY PARTICLE CANNOT MOVE MORE THAN ONE CELL
 =  601.0    (WHEN MIN. R.F.=1)  AT K=   2, I=   5, J=   5

 MAXIMUM STEPSIZE WHICH MEETS STABILITY CRITERION OF THE ADVECTION TERM
 (FOR PURE FINITE-DIFFERENCE OPTION, MIXELM=0) 
 =  188.8    (WHEN MIN. R.F.=1)  AT K=   2, I=   5, J=   5

                    "CNH             " FLOW TERMS FOR TIME STEP 90, STRESS PERIOD  4 READ UNFORMATTED ON UNIT 10
                    --------------------------------------------------------------------------------------------

                    "WEL             " FLOW TERMS FOR TIME STEP 90, STRESS PERIOD  4 READ UNFORMATTED ON UNIT 10
                    --------------------------------------------------------------------------------------------

                    "GHB             " FLOW TERMS FOR TIME STEP 90, STRESS PERIOD  4 READ UNFORMATTED ON UNIT 10
                    --------------------------------------------------------------------------------------------


 TOTAL NUMBER OF POINT SOURCES/SINKS PRESENT IN THE FLOW MODEL =    41

 MAXIMUM STEPSIZE WHICH MEETS STABILITY CRITERION OF THE SINK & SOURCE TERM
 =  128.6    (WHEN MIN. R.F.=1)  AT K=   1, I=   5, J=   5

 MAXIMUM STEPSIZE WHICH MEETS STABILITY CRITERION OF THE DISPERSION TERM
 =  384.8    (WHEN MIN. R.F.=1)  AT K=   1, I=   5, J=   5


     1 CALLS TO GCG PACKAGE FOR TRANSPORT TIME STEP   1 IN FLOW TIME STEP  90 STRESS PERIOD   4
     2 TOTAL ITERATIONS
  MAXIMUM CONCENTRATION CHANGES FOR EACH ITERATION:
  MAX. CHANGE LAYER,ROW,COL MAX. CHANGE LAYER,ROW,COL MAX. CHANGE LAYER,ROW,COL MAX. CHANGE LAYER,ROW,COL MAX. CHANGE LAYER,ROW,COL
 ------------------------------------------------------------------------------------------------------------------------------------
   0.8281E-03 (  1,  5,  5)  0.4441E-15 (  1,  2,  8)


                                          ================================================
                                                         TIME STEP NO.  091
                                          ================================================

 FROM TIME =   291.00     TO    292.00    


                    "THKSAT          " FLOW TERMS FOR TIME STEP 91, STRESS PERIOD  4 READ UNFORMATTED ON UNIT 10
                    --------------------------------------------------------------------------------------------

                    "QXX             " FLOW TERMS FOR TIME STEP 91, STRESS PERIOD  4 READ UNFORMATTED ON UNIT 10
                    --------------------------------------------------------------------------------------------

                    "QYY             " FLOW TERMS FOR TIME STEP 91, STRESS PERIOD  4 READ UNFORMATTED ON UNIT 10
                    --------------------------------------------------------------------------------------------

                    "QZZ             " FLOW TERMS FOR TIME STEP 91, STRESS PERIOD  4 READ UNFORMATTED ON UNIT 10
                    --------------------------------------------------------------------------------------------

                    "STO             " FLOW TERMS FOR TIME STEP 91, STRESS PERIOD  4 READ UNFORMATTED ON UNIT 10
                    --------------------------------------------------------------------------------------------

 MAXIMUM STEPSIZE DURING WHICH ANY PARTICLE CANNOT MOVE MORE THAN ONE CELL
 =  601.0    (WHEN MIN. R.F.=1)  AT K=   2, I=   5, J=   5

 MAXIMUM STEPSIZE WHICH MEETS STABILITY CRITERION OF THE ADVECTION TERM
 (FOR PURE FINITE-DIFFERENCE OPTION, MIXELM=0) 
 =  188.8    (WHEN MIN. R.F.=1)  AT K=   2, I=   5, J=   5

                    "CNH             " FLOW TERMS FOR TIME STEP 91, STRESS PERIOD  4 READ UNFORMATTED ON UNIT 10
                    --------------------------------------------------------------------------------------------

                    "WEL             " FLOW TERMS FOR TIME STEP 91, STRESS PERIOD  4 READ UNFORMATTED ON UNIT 10
                    --------------------------------------------------------------------------------------------

                    "GHB             " FLOW TERMS FOR TIME STEP 91, STRESS PERIOD  4 READ UNFORMATTED ON UNIT 10
                    --------------------------------------------------------------------------------------------


 TOTAL NUMBER OF POINT SOURCES/SINKS PRESENT IN THE FLOW MODEL =    41

 MAXIMUM STEPSIZE WHICH MEETS STABILITY CRITERION OF THE SINK & SOURCE TERM
 =  128.6    (WHEN MIN. R.F.=1)  AT K=   1, I=   5, J=   5

 MAXIMUM STEPSIZE WHICH MEETS STABILITY CRITERION OF THE DISPERSION TERM
 =  384.8    (WHEN MIN. R.F.=1)  AT K=   1, I=   5, J=   5


     1 CALLS TO GCG PACKAGE FOR TRANSPORT TIME STEP   1 IN FLOW TIME STEP  91 STRESS PERIOD   4
     2 TOTAL ITERATIONS
  MAXIMUM CONCENTRATION CHANGES FOR EACH ITERATION:
  MAX. CHANGE LAYER,ROW,COL MAX. CHANGE LAYER,ROW,COL MAX. CHANGE LAYER,ROW,COL MAX. CHANGE LAYER,ROW,COL MAX. CHANGE LAYER,ROW,COL
 ------------------------------------------------------------------------------------------------------------------------------------
   0.8199E-03 (  1,  5,  5)  0.4441E-15 (  1,  2,  8)


                                          ================================================
                                                         TIME STEP NO.  092
                                          ================================================

 FROM TIME =   292.00     TO    293.00    


                    "THKSAT          " FLOW TERMS FOR TIME STEP 92, STRESS PERIOD  4 READ UNFORMATTED ON UNIT 10
                    --------------------------------------------------------------------------------------------

                    "QXX             " FLOW TERMS FOR TIME STEP 92, STRESS PERIOD  4 READ UNFORMATTED ON UNIT 10
                    --------------------------------------------------------------------------------------------

                    "QYY             " FLOW TERMS FOR TIME STEP 92, STRESS PERIOD  4 READ UNFORMATTED ON UNIT 10
                    --------------------------------------------------------------------------------------------

                    "QZZ             " FLOW TERMS FOR TIME STEP 92, STRESS PERIOD  4 READ UNFORMATTED ON UNIT 10
                    --------------------------------------------------------------------------------------------

                    "STO             " FLOW TERMS FOR TIME STEP 92, STRESS PERIOD  4 READ UNFORMATTED ON UNIT 10
                    --------------------------------------------------------------------------------------------

 MAXIMUM STEPSIZE DURING WHICH ANY PARTICLE CANNOT MOVE MORE THAN ONE CELL
 =  601.0    (WHEN MIN. R.F.=1)  AT K=   2, I=   5, J=   5

 MAXIMUM STEPSIZE WHICH MEETS STABILITY CRITERION OF THE ADVECTION TERM
 (FOR PURE FINITE-DIFFERENCE OPTION, MIXELM=0) 
 =  188.8    (WHEN MIN. R.F.=1)  AT K=   2, I=   5, J=   5

                    "CNH             " FLOW TERMS FOR TIME STEP 92, STRESS PERIOD  4 READ UNFORMATTED ON UNIT 10
                    --------------------------------------------------------------------------------------------

                    "WEL             " FLOW TERMS FOR TIME STEP 92, STRESS PERIOD  4 READ UNFORMATTED ON UNIT 10
                    --------------------------------------------------------------------------------------------

                    "GHB             " FLOW TERMS FOR TIME STEP 92, STRESS PERIOD  4 READ UNFORMATTED ON UNIT 10
                    --------------------------------------------------------------------------------------------


 TOTAL NUMBER OF POINT SOURCES/SINKS PRESENT IN THE FLOW MODEL =    41

 MAXIMUM STEPSIZE WHICH MEETS STABILITY CRITERION OF THE SINK & SOURCE TERM
 =  128.6    (WHEN MIN. R.F.=1)  AT K=   1, I=   5, J=   5

 MAXIMUM STEPSIZE WHICH MEETS STABILITY CRITERION OF THE DISPERSION TERM
 =  384.8    (WHEN MIN. R.F.=1)  AT K=   1, I=   5, J=   5


     1 CALLS TO GCG PACKAGE FOR TRANSPORT TIME STEP   1 IN FLOW TIME STEP  92 STRESS PERIOD   4
     2 TOTAL ITERATIONS
  MAXIMUM CONCENTRATION CHANGES FOR EACH ITERATION:
  MAX. CHANGE LAYER,ROW,COL MAX. CHANGE LAYER,ROW,COL MAX. CHANGE LAYER,ROW,COL MAX. CHANGE LAYER,ROW,COL MAX. CHANGE LAYER,ROW,COL
 ------------------------------------------------------------------------------------------------------------------------------------
   0.8122E-03 (  1,  5,  5)  0.4441E-15 (  1,  2,  8)


                                          ================================================
                                                         TIME STEP NO.  093
                                          ================================================

 FROM TIME =   293.00     TO    294.00    


                    "THKSAT          " FLOW TERMS FOR TIME STEP 93, STRESS PERIOD  4 READ UNFORMATTED ON UNIT 10
                    --------------------------------------------------------------------------------------------

                    "QXX             " FLOW TERMS FOR TIME STEP 93, STRESS PERIOD  4 READ UNFORMATTED ON UNIT 10
                    --------------------------------------------------------------------------------------------

                    "QYY             " FLOW TERMS FOR TIME STEP 93, STRESS PERIOD  4 READ UNFORMATTED ON UNIT 10
                    --------------------------------------------------------------------------------------------

                    "QZZ             " FLOW TERMS FOR TIME STEP 93, STRESS PERIOD  4 READ UNFORMATTED ON UNIT 10
                    --------------------------------------------------------------------------------------------

                    "STO             " FLOW TERMS FOR TIME STEP 93, STRESS PERIOD  4 READ UNFORMATTED ON UNIT 10
                    --------------------------------------------------------------------------------------------

 MAXIMUM STEPSIZE DURING WHICH ANY PARTICLE CANNOT MOVE MORE THAN ONE CELL
 =  601.0    (WHEN MIN. R.F.=1)  AT K=   2, I=   5, J=   5

 MAXIMUM STEPSIZE WHICH MEETS STABILITY CRITERION OF THE ADVECTION TERM
 (FOR PURE FINITE-DIFFERENCE OPTION, MIXELM=0) 
 =  188.8    (WHEN MIN. R.F.=1)  AT K=   2, I=   5, J=   5

                    "CNH             " FLOW TERMS FOR TIME STEP 93, STRESS PERIOD  4 READ UNFORMATTED ON UNIT 10
                    --------------------------------------------------------------------------------------------

                    "WEL             " FLOW TERMS FOR TIME STEP 93, STRESS PERIOD  4 READ UNFORMATTED ON UNIT 10
                    --------------------------------------------------------------------------------------------

                    "GHB             " FLOW TERMS FOR TIME STEP 93, STRESS PERIOD  4 READ UNFORMATTED ON UNIT 10
                    --------------------------------------------------------------------------------------------


 TOTAL NUMBER OF POINT SOURCES/SINKS PRESENT IN THE FLOW MODEL =    41

 MAXIMUM STEPSIZE WHICH MEETS STABILITY CRITERION OF THE SINK & SOURCE TERM
 =  128.6    (WHEN MIN. R.F.=1)  AT K=   1, I=   5, J=   5

 MAXIMUM STEPSIZE WHICH MEETS STABILITY CRITERION OF THE DISPERSION TERM
 =  384.9    (WHEN MIN. R.F.=1)  AT K=   1, I=   5, J=   5


     1 CALLS TO GCG PACKAGE FOR TRANSPORT TIME STEP   1 IN FLOW TIME STEP  93 STRESS PERIOD   4
     2 TOTAL ITERATIONS
  MAXIMUM CONCENTRATION CHANGES FOR EACH ITERATION:
  MAX. CHANGE LAYER,ROW,COL MAX. CHANGE LAYER,ROW,COL MAX. CHANGE LAYER,ROW,COL MAX. CHANGE LAYER,ROW,COL MAX. CHANGE LAYER,ROW,COL
 ------------------------------------------------------------------------------------------------------------------------------------
   0.8044E-03 (  1,  5,  5)  0.4441E-15 (  1,  2,  8)


                                          ================================================
                                                         TIME STEP NO.  094
                                          ================================================

 FROM TIME =   294.00     TO    295.00    


                    "THKSAT          " FLOW TERMS FOR TIME STEP 94, STRESS PERIOD  4 READ UNFORMATTED ON UNIT 10
                    --------------------------------------------------------------------------------------------

                    "QXX             " FLOW TERMS FOR TIME STEP 94, STRESS PERIOD  4 READ UNFORMATTED ON UNIT 10
                    --------------------------------------------------------------------------------------------

                    "QYY             " FLOW TERMS FOR TIME STEP 94, STRESS PERIOD  4 READ UNFORMATTED ON UNIT 10
                    --------------------------------------------------------------------------------------------

                    "QZZ             " FLOW TERMS FOR TIME STEP 94, STRESS PERIOD  4 READ UNFORMATTED ON UNIT 10
                    --------------------------------------------------------------------------------------------

                    "STO             " FLOW TERMS FOR TIME STEP 94, STRESS PERIOD  4 READ UNFORMATTED ON UNIT 10
                    --------------------------------------------------------------------------------------------

 MAXIMUM STEPSIZE DURING WHICH ANY PARTICLE CANNOT MOVE MORE THAN ONE CELL
 =  601.0    (WHEN MIN. R.F.=1)  AT K=   2, I=   5, J=   5

 MAXIMUM STEPSIZE WHICH MEETS STABILITY CRITERION OF THE ADVECTION TERM
 (FOR PURE FINITE-DIFFERENCE OPTION, MIXELM=0) 
 =  188.8    (WHEN MIN. R.F.=1)  AT K=   2, I=   5, J=   5

                    "CNH             " FLOW TERMS FOR TIME STEP 94, STRESS PERIOD  4 READ UNFORMATTED ON UNIT 10
                    --------------------------------------------------------------------------------------------

                    "WEL             " FLOW TERMS FOR TIME STEP 94, STRESS PERIOD  4 READ UNFORMATTED ON UNIT 10
                    --------------------------------------------------------------------------------------------

                    "GHB             " FLOW TERMS FOR TIME STEP 94, STRESS PERIOD  4 READ UNFORMATTED ON UNIT 10
                    --------------------------------------------------------------------------------------------


 TOTAL NUMBER OF POINT SOURCES/SINKS PRESENT IN THE FLOW MODEL =    41

 MAXIMUM STEPSIZE WHICH MEETS STABILITY CRITERION OF THE SINK & SOURCE TERM
 =  128.6    (WHEN MIN. R.F.=1)  AT K=   1, I=   5, J=   5

 MAXIMUM STEPSIZE WHICH MEETS STABILITY CRITERION OF THE DISPERSION TERM
 =  384.9    (WHEN MIN. R.F.=1)  AT K=   1, I=   5, J=   5


     1 CALLS TO GCG PACKAGE FOR TRANSPORT TIME STEP   1 IN FLOW TIME STEP  94 STRESS PERIOD   4
     2 TOTAL ITERATIONS
  MAXIMUM CONCENTRATION CHANGES FOR EACH ITERATION:
  MAX. CHANGE LAYER,ROW,COL MAX. CHANGE LAYER,ROW,COL MAX. CHANGE LAYER,ROW,COL MAX. CHANGE LAYER,ROW,COL MAX. CHANGE LAYER,ROW,COL
 ------------------------------------------------------------------------------------------------------------------------------------
   0.7967E-03 (  1,  5,  5)  0.4441E-15 (  1,  2,  8)


                                          ================================================
                                                         TIME STEP NO.  095
                                          ================================================

 FROM TIME =   295.00     TO    296.00    


                    "THKSAT          " FLOW TERMS FOR TIME STEP 95, STRESS PERIOD  4 READ UNFORMATTED ON UNIT 10
                    --------------------------------------------------------------------------------------------

                    "QXX             " FLOW TERMS FOR TIME STEP 95, STRESS PERIOD  4 READ UNFORMATTED ON UNIT 10
                    --------------------------------------------------------------------------------------------

                    "QYY             " FLOW TERMS FOR TIME STEP 95, STRESS PERIOD  4 READ UNFORMATTED ON UNIT 10
                    --------------------------------------------------------------------------------------------

                    "QZZ             " FLOW TERMS FOR TIME STEP 95, STRESS PERIOD  4 READ UNFORMATTED ON UNIT 10
                    --------------------------------------------------------------------------------------------

                    "STO             " FLOW TERMS FOR TIME STEP 95, STRESS PERIOD  4 READ UNFORMATTED ON UNIT 10
                    --------------------------------------------------------------------------------------------

 MAXIMUM STEPSIZE DURING WHICH ANY PARTICLE CANNOT MOVE MORE THAN ONE CELL
 =  601.0    (WHEN MIN. R.F.=1)  AT K=   2, I=   5, J=   5

 MAXIMUM STEPSIZE WHICH MEETS STABILITY CRITERION OF THE ADVECTION TERM
 (FOR PURE FINITE-DIFFERENCE OPTION, MIXELM=0) 
 =  188.8    (WHEN MIN. R.F.=1)  AT K=   2, I=   5, J=   5

                    "CNH             " FLOW TERMS FOR TIME STEP 95, STRESS PERIOD  4 READ UNFORMATTED ON UNIT 10
                    --------------------------------------------------------------------------------------------

                    "WEL             " FLOW TERMS FOR TIME STEP 95, STRESS PERIOD  4 READ UNFORMATTED ON UNIT 10
                    --------------------------------------------------------------------------------------------

                    "GHB             " FLOW TERMS FOR TIME STEP 95, STRESS PERIOD  4 READ UNFORMATTED ON UNIT 10
                    --------------------------------------------------------------------------------------------


 TOTAL NUMBER OF POINT SOURCES/SINKS PRESENT IN THE FLOW MODEL =    41

 MAXIMUM STEPSIZE WHICH MEETS STABILITY CRITERION OF THE SINK & SOURCE TERM
 =  128.6    (WHEN MIN. R.F.=1)  AT K=   1, I=   5, J=   5

 MAXIMUM STEPSIZE WHICH MEETS STABILITY CRITERION OF THE DISPERSION TERM
 =  384.9    (WHEN MIN. R.F.=1)  AT K=   1, I=   5, J=   5


     1 CALLS TO GCG PACKAGE FOR TRANSPORT TIME STEP   1 IN FLOW TIME STEP  95 STRESS PERIOD   4
     2 TOTAL ITERATIONS
  MAXIMUM CONCENTRATION CHANGES FOR EACH ITERATION:
  MAX. CHANGE LAYER,ROW,COL MAX. CHANGE LAYER,ROW,COL MAX. CHANGE LAYER,ROW,COL MAX. CHANGE LAYER,ROW,COL MAX. CHANGE LAYER,ROW,COL
 ------------------------------------------------------------------------------------------------------------------------------------
   0.7892E-03 (  1,  5,  5)  0.4441E-15 (  1,  2,  8)


                                          ================================================
                                                         TIME STEP NO.  096
                                          ================================================

 FROM TIME =   296.00     TO    297.00    


                    "THKSAT          " FLOW TERMS FOR TIME STEP 96, STRESS PERIOD  4 READ UNFORMATTED ON UNIT 10
                    --------------------------------------------------------------------------------------------

                    "QXX             " FLOW TERMS FOR TIME STEP 96, STRESS PERIOD  4 READ UNFORMATTED ON UNIT 10
                    --------------------------------------------------------------------------------------------

                    "QYY             " FLOW TERMS FOR TIME STEP 96, STRESS PERIOD  4 READ UNFORMATTED ON UNIT 10
                    --------------------------------------------------------------------------------------------

                    "QZZ             " FLOW TERMS FOR TIME STEP 96, STRESS PERIOD  4 READ UNFORMATTED ON UNIT 10
                    --------------------------------------------------------------------------------------------

                    "STO             " FLOW TERMS FOR TIME STEP 96, STRESS PERIOD  4 READ UNFORMATTED ON UNIT 10
                    --------------------------------------------------------------------------------------------

 MAXIMUM STEPSIZE DURING WHICH ANY PARTICLE CANNOT MOVE MORE THAN ONE CELL
 =  601.0    (WHEN MIN. R.F.=1)  AT K=   2, I=   5, J=   5

 MAXIMUM STEPSIZE WHICH MEETS STABILITY CRITERION OF THE ADVECTION TERM
 (FOR PURE FINITE-DIFFERENCE OPTION, MIXELM=0) 
 =  188.8    (WHEN MIN. R.F.=1)  AT K=   2, I=   5, J=   5

                    "CNH             " FLOW TERMS FOR TIME STEP 96, STRESS PERIOD  4 READ UNFORMATTED ON UNIT 10
                    --------------------------------------------------------------------------------------------

                    "WEL             " FLOW TERMS FOR TIME STEP 96, STRESS PERIOD  4 READ UNFORMATTED ON UNIT 10
                    --------------------------------------------------------------------------------------------

                    "GHB             " FLOW TERMS FOR TIME STEP 96, STRESS PERIOD  4 READ UNFORMATTED ON UNIT 10
                    --------------------------------------------------------------------------------------------


 TOTAL NUMBER OF POINT SOURCES/SINKS PRESENT IN THE FLOW MODEL =    41

 MAXIMUM STEPSIZE WHICH MEETS STABILITY CRITERION OF THE SINK & SOURCE TERM
 =  128.6    (WHEN MIN. R.F.=1)  AT K=   1, I=   5, J=   5

 MAXIMUM STEPSIZE WHICH MEETS STABILITY CRITERION OF THE DISPERSION TERM
 =  384.9    (WHEN MIN. R.F.=1)  AT K=   1, I=   5, J=   5


     1 CALLS TO GCG PACKAGE FOR TRANSPORT TIME STEP   1 IN FLOW TIME STEP  96 STRESS PERIOD   4
     2 TOTAL ITERATIONS
  MAXIMUM CONCENTRATION CHANGES FOR EACH ITERATION:
  MAX. CHANGE LAYER,ROW,COL MAX. CHANGE LAYER,ROW,COL MAX. CHANGE LAYER,ROW,COL MAX. CHANGE LAYER,ROW,COL MAX. CHANGE LAYER,ROW,COL
 ------------------------------------------------------------------------------------------------------------------------------------
   0.8059E-03 (  1,  5,  5)  0.4441E-15 (  1,  2,  8)


                                          ================================================
                                                         TIME STEP NO.  097
                                          ================================================

 FROM TIME =   297.00     TO    298.00    


                    "THKSAT          " FLOW TERMS FOR TIME STEP 97, STRESS PERIOD  4 READ UNFORMATTED ON UNIT 10
                    --------------------------------------------------------------------------------------------

                    "QXX             " FLOW TERMS FOR TIME STEP 97, STRESS PERIOD  4 READ UNFORMATTED ON UNIT 10
                    --------------------------------------------------------------------------------------------

                    "QYY             " FLOW TERMS FOR TIME STEP 97, STRESS PERIOD  4 READ UNFORMATTED ON UNIT 10
                    --------------------------------------------------------------------------------------------

                    "QZZ             " FLOW TERMS FOR TIME STEP 97, STRESS PERIOD  4 READ UNFORMATTED ON UNIT 10
                    --------------------------------------------------------------------------------------------

                    "STO             " FLOW TERMS FOR TIME STEP 97, STRESS PERIOD  4 READ UNFORMATTED ON UNIT 10
                    --------------------------------------------------------------------------------------------

 MAXIMUM STEPSIZE DURING WHICH ANY PARTICLE CANNOT MOVE MORE THAN ONE CELL
 =  601.0    (WHEN MIN. R.F.=1)  AT K=   2, I=   5, J=   5

 MAXIMUM STEPSIZE WHICH MEETS STABILITY CRITERION OF THE ADVECTION TERM
 (FOR PURE FINITE-DIFFERENCE OPTION, MIXELM=0) 
 =  188.7    (WHEN MIN. R.F.=1)  AT K=   2, I=   5, J=   5

                    "CNH             " FLOW TERMS FOR TIME STEP 97, STRESS PERIOD  4 READ UNFORMATTED ON UNIT 10
                    --------------------------------------------------------------------------------------------

                    "WEL             " FLOW TERMS FOR TIME STEP 97, STRESS PERIOD  4 READ UNFORMATTED ON UNIT 10
                    --------------------------------------------------------------------------------------------

                    "GHB             " FLOW TERMS FOR TIME STEP 97, STRESS PERIOD  4 READ UNFORMATTED ON UNIT 10
                    --------------------------------------------------------------------------------------------


 TOTAL NUMBER OF POINT SOURCES/SINKS PRESENT IN THE FLOW MODEL =    41

 MAXIMUM STEPSIZE WHICH MEETS STABILITY CRITERION OF THE SINK & SOURCE TERM
 =  128.6    (WHEN MIN. R.F.=1)  AT K=   1, I=   5, J=   5

 MAXIMUM STEPSIZE WHICH MEETS STABILITY CRITERION OF THE DISPERSION TERM
 =  384.9    (WHEN MIN. R.F.=1)  AT K=   1, I=   5, J=   5


     1 CALLS TO GCG PACKAGE FOR TRANSPORT TIME STEP   1 IN FLOW TIME STEP  97 STRESS PERIOD   4
     2 TOTAL ITERATIONS
  MAXIMUM CONCENTRATION CHANGES FOR EACH ITERATION:
  MAX. CHANGE LAYER,ROW,COL MAX. CHANGE LAYER,ROW,COL MAX. CHANGE LAYER,ROW,COL MAX. CHANGE LAYER,ROW,COL MAX. CHANGE LAYER,ROW,COL
 ------------------------------------------------------------------------------------------------------------------------------------
   0.7985E-03 (  1,  5,  5)  0.4441E-15 (  1,  2,  8)


                                          ================================================
                                                         TIME STEP NO.  098
                                          ================================================

 FROM TIME =   298.00     TO    299.00    


                    "THKSAT          " FLOW TERMS FOR TIME STEP 98, STRESS PERIOD  4 READ UNFORMATTED ON UNIT 10
                    --------------------------------------------------------------------------------------------

                    "QXX             " FLOW TERMS FOR TIME STEP 98, STRESS PERIOD  4 READ UNFORMATTED ON UNIT 10
                    --------------------------------------------------------------------------------------------

                    "QYY             " FLOW TERMS FOR TIME STEP 98, STRESS PERIOD  4 READ UNFORMATTED ON UNIT 10
                    --------------------------------------------------------------------------------------------

                    "QZZ             " FLOW TERMS FOR TIME STEP 98, STRESS PERIOD  4 READ UNFORMATTED ON UNIT 10
                    --------------------------------------------------------------------------------------------

                    "STO             " FLOW TERMS FOR TIME STEP 98, STRESS PERIOD  4 READ UNFORMATTED ON UNIT 10
                    --------------------------------------------------------------------------------------------

 MAXIMUM STEPSIZE DURING WHICH ANY PARTICLE CANNOT MOVE MORE THAN ONE CELL
 =  601.0    (WHEN MIN. R.F.=1)  AT K=   2, I=   5, J=   5

 MAXIMUM STEPSIZE WHICH MEETS STABILITY CRITERION OF THE ADVECTION TERM
 (FOR PURE FINITE-DIFFERENCE OPTION, MIXELM=0) 
 =  188.7    (WHEN MIN. R.F.=1)  AT K=   2, I=   5, J=   5

                    "CNH             " FLOW TERMS FOR TIME STEP 98, STRESS PERIOD  4 READ UNFORMATTED ON UNIT 10
                    --------------------------------------------------------------------------------------------

                    "WEL             " FLOW TERMS FOR TIME STEP 98, STRESS PERIOD  4 READ UNFORMATTED ON UNIT 10
                    --------------------------------------------------------------------------------------------

                    "GHB             " FLOW TERMS FOR TIME STEP 98, STRESS PERIOD  4 READ UNFORMATTED ON UNIT 10
                    --------------------------------------------------------------------------------------------


 TOTAL NUMBER OF POINT SOURCES/SINKS PRESENT IN THE FLOW MODEL =    41

 MAXIMUM STEPSIZE WHICH MEETS STABILITY CRITERION OF THE SINK & SOURCE TERM
 =  128.6    (WHEN MIN. R.F.=1)  AT K=   1, I=   5, J=   5

 MAXIMUM STEPSIZE WHICH MEETS STABILITY CRITERION OF THE DISPERSION TERM
 =  384.9    (WHEN MIN. R.F.=1)  AT K=   1, I=   5, J=   5


     1 CALLS TO GCG PACKAGE FOR TRANSPORT TIME STEP   1 IN FLOW TIME STEP  98 STRESS PERIOD   4
     2 TOTAL ITERATIONS
  MAXIMUM CONCENTRATION CHANGES FOR EACH ITERATION:
  MAX. CHANGE LAYER,ROW,COL MAX. CHANGE LAYER,ROW,COL MAX. CHANGE LAYER,ROW,COL MAX. CHANGE LAYER,ROW,COL MAX. CHANGE LAYER,ROW,COL
 ------------------------------------------------------------------------------------------------------------------------------------
   0.7910E-03 (  1,  5,  5)  0.4441E-15 (  1,  2,  8)


                                          ================================================
                                                         TIME STEP NO.  099
                                          ================================================

 FROM TIME =   299.00     TO    300.00    


                    "THKSAT          " FLOW TERMS FOR TIME STEP 99, STRESS PERIOD  4 READ UNFORMATTED ON UNIT 10
                    --------------------------------------------------------------------------------------------

                    "QXX             " FLOW TERMS FOR TIME STEP 99, STRESS PERIOD  4 READ UNFORMATTED ON UNIT 10
                    --------------------------------------------------------------------------------------------

                    "QYY             " FLOW TERMS FOR TIME STEP 99, STRESS PERIOD  4 READ UNFORMATTED ON UNIT 10
                    --------------------------------------------------------------------------------------------

                    "QZZ             " FLOW TERMS FOR TIME STEP 99, STRESS PERIOD  4 READ UNFORMATTED ON UNIT 10
                    --------------------------------------------------------------------------------------------

                    "STO             " FLOW TERMS FOR TIME STEP 99, STRESS PERIOD  4 READ UNFORMATTED ON UNIT 10
                    --------------------------------------------------------------------------------------------

 MAXIMUM STEPSIZE DURING WHICH ANY PARTICLE CANNOT MOVE MORE THAN ONE CELL
 =  600.9    (WHEN MIN. R.F.=1)  AT K=   2, I=   5, J=   5

 MAXIMUM STEPSIZE WHICH MEETS STABILITY CRITERION OF THE ADVECTION TERM
 (FOR PURE FINITE-DIFFERENCE OPTION, MIXELM=0) 
 =  188.7    (WHEN MIN. R.F.=1)  AT K=   2, I=   5, J=   5

                    "CNH             " FLOW TERMS FOR TIME STEP 99, STRESS PERIOD  4 READ UNFORMATTED ON UNIT 10
                    --------------------------------------------------------------------------------------------

                    "WEL             " FLOW TERMS FOR TIME STEP 99, STRESS PERIOD  4 READ UNFORMATTED ON UNIT 10
                    --------------------------------------------------------------------------------------------

                    "GHB             " FLOW TERMS FOR TIME STEP 99, STRESS PERIOD  4 READ UNFORMATTED ON UNIT 10
                    --------------------------------------------------------------------------------------------


 TOTAL NUMBER OF POINT SOURCES/SINKS PRESENT IN THE FLOW MODEL =    41

 MAXIMUM STEPSIZE WHICH MEETS STABILITY CRITERION OF THE SINK & SOURCE TERM
 =  128.6    (WHEN MIN. R.F.=1)  AT K=   1, I=   5, J=   5

 MAXIMUM STEPSIZE WHICH MEETS STABILITY CRITERION OF THE DISPERSION TERM
 =  384.9    (WHEN MIN. R.F.=1)  AT K=   1, I=   5, J=   5


     1 CALLS TO GCG PACKAGE FOR TRANSPORT TIME STEP   1 IN FLOW TIME STEP  99 STRESS PERIOD   4
     2 TOTAL ITERATIONS
  MAXIMUM CONCENTRATION CHANGES FOR EACH ITERATION:
  MAX. CHANGE LAYER,ROW,COL MAX. CHANGE LAYER,ROW,COL MAX. CHANGE LAYER,ROW,COL MAX. CHANGE LAYER,ROW,COL MAX. CHANGE LAYER,ROW,COL
 ------------------------------------------------------------------------------------------------------------------------------------
   0.7833E-03 (  1,  5,  5)  0.4441E-15 (  1,  2,  8)


                                          ================================================
                                                         TIME STEP NO.  100
                                          ================================================

 FROM TIME =   300.00     TO    301.00    


                    "THKSAT          " FLOW TERMS FOR TIME STEP100, STRESS PERIOD  4 READ UNFORMATTED ON UNIT 10
                    --------------------------------------------------------------------------------------------

                    "QXX             " FLOW TERMS FOR TIME STEP100, STRESS PERIOD  4 READ UNFORMATTED ON UNIT 10
                    --------------------------------------------------------------------------------------------

                    "QYY             " FLOW TERMS FOR TIME STEP100, STRESS PERIOD  4 READ UNFORMATTED ON UNIT 10
                    --------------------------------------------------------------------------------------------

                    "QZZ             " FLOW TERMS FOR TIME STEP100, STRESS PERIOD  4 READ UNFORMATTED ON UNIT 10
                    --------------------------------------------------------------------------------------------

                    "STO             " FLOW TERMS FOR TIME STEP100, STRESS PERIOD  4 READ UNFORMATTED ON UNIT 10
                    --------------------------------------------------------------------------------------------

 MAXIMUM STEPSIZE DURING WHICH ANY PARTICLE CANNOT MOVE MORE THAN ONE CELL
 =  600.9    (WHEN MIN. R.F.=1)  AT K=   2, I=   5, J=   5

 MAXIMUM STEPSIZE WHICH MEETS STABILITY CRITERION OF THE ADVECTION TERM
 (FOR PURE FINITE-DIFFERENCE OPTION, MIXELM=0) 
 =  188.7    (WHEN MIN. R.F.=1)  AT K=   2, I=   5, J=   5

                    "CNH             " FLOW TERMS FOR TIME STEP100, STRESS PERIOD  4 READ UNFORMATTED ON UNIT 10
                    --------------------------------------------------------------------------------------------

                    "WEL             " FLOW TERMS FOR TIME STEP100, STRESS PERIOD  4 READ UNFORMATTED ON UNIT 10
                    --------------------------------------------------------------------------------------------

                    "GHB             " FLOW TERMS FOR TIME STEP100, STRESS PERIOD  4 READ UNFORMATTED ON UNIT 10
                    --------------------------------------------------------------------------------------------


 TOTAL NUMBER OF POINT SOURCES/SINKS PRESENT IN THE FLOW MODEL =    41

 MAXIMUM STEPSIZE WHICH MEETS STABILITY CRITERION OF THE SINK & SOURCE TERM
 =  128.6    (WHEN MIN. R.F.=1)  AT K=   1, I=   5, J=   5

 MAXIMUM STEPSIZE WHICH MEETS STABILITY CRITERION OF THE DISPERSION TERM
 =  384.9    (WHEN MIN. R.F.=1)  AT K=   1, I=   5, J=   5


     1 CALLS TO GCG PACKAGE FOR TRANSPORT TIME STEP   1 IN FLOW TIME STEP 100 STRESS PERIOD   4
     2 TOTAL ITERATIONS
  MAXIMUM CONCENTRATION CHANGES FOR EACH ITERATION:
  MAX. CHANGE LAYER,ROW,COL MAX. CHANGE LAYER,ROW,COL MAX. CHANGE LAYER,ROW,COL MAX. CHANGE LAYER,ROW,COL MAX. CHANGE LAYER,ROW,COL
 ------------------------------------------------------------------------------------------------------------------------------------
   0.7757E-03 (  1,  5,  5)  0.4441E-15 (  1,  2,  8)



 >>>>>>>>>>>>>>>>>>>>>>>>>>>>>>>>>>>>>>>>>>>>>>>>>>>>>>>FOR COMPONENT NO. 01<<<<<<<<<<<<<<<<<<<<<<<<<<<<<<<<<<<<<<<<<<<<<<<<<<<<<<<


                                            -------------------------------------------
                                                      TRANSPORT STEP NO.    1
                                            -------------------------------------------

 TOTAL ELAPSED TIME SINCE BEGINNING OF SIMULATION =   301.0000    D   
 .....................................................................

 TOTAL PARTICLES USED IN THE CURRENT STEP =      1680
 PARTICLES ADDED AT BEGINNING OF THE STEP =         0
 PARTICLES REMOVED AT END OF LAST STEP    =         0

                     CUMMULATIVE MASS BUDGETS AT END OF TRANSPORT STEP    1, TIME STEP  100, STRESS PERIOD    4
                     ------------------------------------------------------------------------------------------

                                                             IN                           OUT
                                                      ----------------             ----------------
                               CONSTANT CONCENTRATION:    0.000000                    0.000000    
                                        CONSTANT HEAD:    0.000000                    0.000000    
                                                WELLS:   0.2200000E+09                0.000000    
                              HEAD-DEPENDENT BOUNDARY:    0.000000                  -0.5767413E-01
                                MASS STORAGE (SOLUTE):    6518164.                  -0.1948925E+09
                            ---------------------------------------------------------------------------
                                              [TOTAL]:   0.2268140E+09 KG           -0.1949424E+09 KG  

                                                          NET (IN - OUT):   0.3187150E+08
                                                   DISCREPANCY (PERCENT):    15.11370    


                                   ++++++++++++++++++++++++++++++++++++++++++++++++++++++++++++++
                                                       STRESS PERIOD NO.  005
                                   ++++++++++++++++++++++++++++++++++++++++++++++++++++++++++++++


 LENGTH OF CURRENT STRESS PERIOD =   100.0000    
 NUMBER OF TIME STEPS FOR CURRENT STRESS PERIOD =  100
 TIME STEP MULTIPLIER USED IN FLOW SOLUTION =   1.000000    

 ***Type of Transport Simulation is TRANSIENT

 USER-SPECIFIED TRANSPORT STEPSIZE =   0.000000    D   
 MAXIMUM NUMBER OF TRANSPORT STEPS ALLOWED  IN ONE FLOW TIME STEP =     50000
 MULTIPLIER FOR SUCCESSIVE TRANSPORT STEPS  [USED IN IMPLICIT SCHEMES] =     1.000
 MAXIMUM TRANSPORT STEP SIZE  [USED IN IMPLICIT SCHEMES] =   0.000000    D   

       NO    LAYER   ROW   COLUMN   CONCENTRATION       TYPE            COMPONENT
       1       1       5       5       1000.000         WELL                1


                                          ================================================
                                                         TIME STEP NO.  001
                                          ================================================

 FROM TIME =   301.00     TO    302.00    


                    "THKSAT          " FLOW TERMS FOR TIME STEP  1, STRESS PERIOD  5 READ UNFORMATTED ON UNIT 10
                    --------------------------------------------------------------------------------------------

                    "QXX             " FLOW TERMS FOR TIME STEP  1, STRESS PERIOD  5 READ UNFORMATTED ON UNIT 10
                    --------------------------------------------------------------------------------------------

                    "QYY             " FLOW TERMS FOR TIME STEP  1, STRESS PERIOD  5 READ UNFORMATTED ON UNIT 10
                    --------------------------------------------------------------------------------------------

                    "QZZ             " FLOW TERMS FOR TIME STEP  1, STRESS PERIOD  5 READ UNFORMATTED ON UNIT 10
                    --------------------------------------------------------------------------------------------

                    "STO             " FLOW TERMS FOR TIME STEP  1, STRESS PERIOD  5 READ UNFORMATTED ON UNIT 10
                    --------------------------------------------------------------------------------------------

 MAXIMUM STEPSIZE DURING WHICH ANY PARTICLE CANNOT MOVE MORE THAN ONE CELL
 =  1316.    (WHEN MIN. R.F.=1)  AT K=   1, I=   5, J=   7

 MAXIMUM STEPSIZE WHICH MEETS STABILITY CRITERION OF THE ADVECTION TERM
 (FOR PURE FINITE-DIFFERENCE OPTION, MIXELM=0) 
 =  629.1    (WHEN MIN. R.F.=1)  AT K=   2, I=   5, J=   6

                    "CNH             " FLOW TERMS FOR TIME STEP  1, STRESS PERIOD  5 READ UNFORMATTED ON UNIT 10
                    --------------------------------------------------------------------------------------------

                    "WEL             " FLOW TERMS FOR TIME STEP  1, STRESS PERIOD  5 READ UNFORMATTED ON UNIT 10
                    --------------------------------------------------------------------------------------------

                    "GHB             " FLOW TERMS FOR TIME STEP  1, STRESS PERIOD  5 READ UNFORMATTED ON UNIT 10
                    --------------------------------------------------------------------------------------------


 TOTAL NUMBER OF POINT SOURCES/SINKS PRESENT IN THE FLOW MODEL =    41

 MAXIMUM STEPSIZE WHICH MEETS STABILITY CRITERION OF THE SINK & SOURCE TERM
 =  7056.    (WHEN MIN. R.F.=1)  AT K=   2, I=  10, J=   1

 MAXIMUM STEPSIZE WHICH MEETS STABILITY CRITERION OF THE DISPERSION TERM
 =  2587.    (WHEN MIN. R.F.=1)  AT K=   1, I=   6, J=   5


     1 CALLS TO GCG PACKAGE FOR TRANSPORT TIME STEP   1 IN FLOW TIME STEP   1 STRESS PERIOD   5
     2 TOTAL ITERATIONS
  MAXIMUM CONCENTRATION CHANGES FOR EACH ITERATION:
  MAX. CHANGE LAYER,ROW,COL MAX. CHANGE LAYER,ROW,COL MAX. CHANGE LAYER,ROW,COL MAX. CHANGE LAYER,ROW,COL MAX. CHANGE LAYER,ROW,COL
 ------------------------------------------------------------------------------------------------------------------------------------
   0.1053E-03 (  1,  5,  5)  0.4441E-15 (  1,  2,  8)


                                          ================================================
                                                         TIME STEP NO.  002
                                          ================================================

 FROM TIME =   302.00     TO    303.00    


                    "THKSAT          " FLOW TERMS FOR TIME STEP  2, STRESS PERIOD  5 READ UNFORMATTED ON UNIT 10
                    --------------------------------------------------------------------------------------------

                    "QXX             " FLOW TERMS FOR TIME STEP  2, STRESS PERIOD  5 READ UNFORMATTED ON UNIT 10
                    --------------------------------------------------------------------------------------------

                    "QYY             " FLOW TERMS FOR TIME STEP  2, STRESS PERIOD  5 READ UNFORMATTED ON UNIT 10
                    --------------------------------------------------------------------------------------------

                    "QZZ             " FLOW TERMS FOR TIME STEP  2, STRESS PERIOD  5 READ UNFORMATTED ON UNIT 10
                    --------------------------------------------------------------------------------------------

                    "STO             " FLOW TERMS FOR TIME STEP  2, STRESS PERIOD  5 READ UNFORMATTED ON UNIT 10
                    --------------------------------------------------------------------------------------------

 MAXIMUM STEPSIZE DURING WHICH ANY PARTICLE CANNOT MOVE MORE THAN ONE CELL
 =  1360.    (WHEN MIN. R.F.=1)  AT K=   1, I=   5, J=   7

 MAXIMUM STEPSIZE WHICH MEETS STABILITY CRITERION OF THE ADVECTION TERM
 (FOR PURE FINITE-DIFFERENCE OPTION, MIXELM=0) 
 =  645.2    (WHEN MIN. R.F.=1)  AT K=   2, I=   5, J=   6

                    "CNH             " FLOW TERMS FOR TIME STEP  2, STRESS PERIOD  5 READ UNFORMATTED ON UNIT 10
                    --------------------------------------------------------------------------------------------

                    "WEL             " FLOW TERMS FOR TIME STEP  2, STRESS PERIOD  5 READ UNFORMATTED ON UNIT 10
                    --------------------------------------------------------------------------------------------

                    "GHB             " FLOW TERMS FOR TIME STEP  2, STRESS PERIOD  5 READ UNFORMATTED ON UNIT 10
                    --------------------------------------------------------------------------------------------


 TOTAL NUMBER OF POINT SOURCES/SINKS PRESENT IN THE FLOW MODEL =    41

 MAXIMUM STEPSIZE WHICH MEETS STABILITY CRITERION OF THE SINK & SOURCE TERM
 =  7034.    (WHEN MIN. R.F.=1)  AT K=   2, I=  10, J=   1

 MAXIMUM STEPSIZE WHICH MEETS STABILITY CRITERION OF THE DISPERSION TERM
 =  2418.    (WHEN MIN. R.F.=1)  AT K=   1, I=   6, J=   5


     1 CALLS TO GCG PACKAGE FOR TRANSPORT TIME STEP   1 IN FLOW TIME STEP   2 STRESS PERIOD   5
     2 TOTAL ITERATIONS
  MAXIMUM CONCENTRATION CHANGES FOR EACH ITERATION:
  MAX. CHANGE LAYER,ROW,COL MAX. CHANGE LAYER,ROW,COL MAX. CHANGE LAYER,ROW,COL MAX. CHANGE LAYER,ROW,COL MAX. CHANGE LAYER,ROW,COL
 ------------------------------------------------------------------------------------------------------------------------------------
   0.8714E-04 (  1,  5,  6)  0.4441E-15 (  1,  2,  8)


                                          ================================================
                                                         TIME STEP NO.  003
                                          ================================================

 FROM TIME =   303.00     TO    304.00    


                    "THKSAT          " FLOW TERMS FOR TIME STEP  3, STRESS PERIOD  5 READ UNFORMATTED ON UNIT 10
                    --------------------------------------------------------------------------------------------

                    "QXX             " FLOW TERMS FOR TIME STEP  3, STRESS PERIOD  5 READ UNFORMATTED ON UNIT 10
                    --------------------------------------------------------------------------------------------

                    "QYY             " FLOW TERMS FOR TIME STEP  3, STRESS PERIOD  5 READ UNFORMATTED ON UNIT 10
                    --------------------------------------------------------------------------------------------

                    "QZZ             " FLOW TERMS FOR TIME STEP  3, STRESS PERIOD  5 READ UNFORMATTED ON UNIT 10
                    --------------------------------------------------------------------------------------------

                    "STO             " FLOW TERMS FOR TIME STEP  3, STRESS PERIOD  5 READ UNFORMATTED ON UNIT 10
                    --------------------------------------------------------------------------------------------

 MAXIMUM STEPSIZE DURING WHICH ANY PARTICLE CANNOT MOVE MORE THAN ONE CELL
 =  1392.    (WHEN MIN. R.F.=1)  AT K=   1, I=   5, J=   9

 MAXIMUM STEPSIZE WHICH MEETS STABILITY CRITERION OF THE ADVECTION TERM
 (FOR PURE FINITE-DIFFERENCE OPTION, MIXELM=0) 
 =  683.1    (WHEN MIN. R.F.=1)  AT K=   2, I=   5, J=   6

                    "CNH             " FLOW TERMS FOR TIME STEP  3, STRESS PERIOD  5 READ UNFORMATTED ON UNIT 10
                    --------------------------------------------------------------------------------------------

                    "WEL             " FLOW TERMS FOR TIME STEP  3, STRESS PERIOD  5 READ UNFORMATTED ON UNIT 10
                    --------------------------------------------------------------------------------------------

                    "GHB             " FLOW TERMS FOR TIME STEP  3, STRESS PERIOD  5 READ UNFORMATTED ON UNIT 10
                    --------------------------------------------------------------------------------------------


 TOTAL NUMBER OF POINT SOURCES/SINKS PRESENT IN THE FLOW MODEL =    41

 MAXIMUM STEPSIZE WHICH MEETS STABILITY CRITERION OF THE SINK & SOURCE TERM
 =  7012.    (WHEN MIN. R.F.=1)  AT K=   2, I=  10, J=   1

 MAXIMUM STEPSIZE WHICH MEETS STABILITY CRITERION OF THE DISPERSION TERM
 =  2532.    (WHEN MIN. R.F.=1)  AT K=   1, I=   6, J=   5


     1 CALLS TO GCG PACKAGE FOR TRANSPORT TIME STEP   1 IN FLOW TIME STEP   3 STRESS PERIOD   5
     2 TOTAL ITERATIONS
  MAXIMUM CONCENTRATION CHANGES FOR EACH ITERATION:
  MAX. CHANGE LAYER,ROW,COL MAX. CHANGE LAYER,ROW,COL MAX. CHANGE LAYER,ROW,COL MAX. CHANGE LAYER,ROW,COL MAX. CHANGE LAYER,ROW,COL
 ------------------------------------------------------------------------------------------------------------------------------------
   0.1315E-03 (  1,  5,  5)  0.5551E-16 (  2,  2,  8)


                                          ================================================
                                                         TIME STEP NO.  004
                                          ================================================

 FROM TIME =   304.00     TO    305.00    


                    "THKSAT          " FLOW TERMS FOR TIME STEP  4, STRESS PERIOD  5 READ UNFORMATTED ON UNIT 10
                    --------------------------------------------------------------------------------------------

                    "QXX             " FLOW TERMS FOR TIME STEP  4, STRESS PERIOD  5 READ UNFORMATTED ON UNIT 10
                    --------------------------------------------------------------------------------------------

                    "QYY             " FLOW TERMS FOR TIME STEP  4, STRESS PERIOD  5 READ UNFORMATTED ON UNIT 10
                    --------------------------------------------------------------------------------------------

                    "QZZ             " FLOW TERMS FOR TIME STEP  4, STRESS PERIOD  5 READ UNFORMATTED ON UNIT 10
                    --------------------------------------------------------------------------------------------

                    "STO             " FLOW TERMS FOR TIME STEP  4, STRESS PERIOD  5 READ UNFORMATTED ON UNIT 10
                    --------------------------------------------------------------------------------------------

 MAXIMUM STEPSIZE DURING WHICH ANY PARTICLE CANNOT MOVE MORE THAN ONE CELL
 =  1394.    (WHEN MIN. R.F.=1)  AT K=   1, I=   5, J=   9

 MAXIMUM STEPSIZE WHICH MEETS STABILITY CRITERION OF THE ADVECTION TERM
 (FOR PURE FINITE-DIFFERENCE OPTION, MIXELM=0) 
 =  725.8    (WHEN MIN. R.F.=1)  AT K=   2, I=   5, J=   6

                    "CNH             " FLOW TERMS FOR TIME STEP  4, STRESS PERIOD  5 READ UNFORMATTED ON UNIT 10
                    --------------------------------------------------------------------------------------------

                    "WEL             " FLOW TERMS FOR TIME STEP  4, STRESS PERIOD  5 READ UNFORMATTED ON UNIT 10
                    --------------------------------------------------------------------------------------------

                    "GHB             " FLOW TERMS FOR TIME STEP  4, STRESS PERIOD  5 READ UNFORMATTED ON UNIT 10
                    --------------------------------------------------------------------------------------------


 TOTAL NUMBER OF POINT SOURCES/SINKS PRESENT IN THE FLOW MODEL =    41

 MAXIMUM STEPSIZE WHICH MEETS STABILITY CRITERION OF THE SINK & SOURCE TERM
 =  6991.    (WHEN MIN. R.F.=1)  AT K=   2, I=  10, J=   1

 MAXIMUM STEPSIZE WHICH MEETS STABILITY CRITERION OF THE DISPERSION TERM
 =  2417.    (WHEN MIN. R.F.=1)  AT K=   1, I=   5, J=   5


     1 CALLS TO GCG PACKAGE FOR TRANSPORT TIME STEP   1 IN FLOW TIME STEP   4 STRESS PERIOD   5
     2 TOTAL ITERATIONS
  MAXIMUM CONCENTRATION CHANGES FOR EACH ITERATION:
  MAX. CHANGE LAYER,ROW,COL MAX. CHANGE LAYER,ROW,COL MAX. CHANGE LAYER,ROW,COL MAX. CHANGE LAYER,ROW,COL MAX. CHANGE LAYER,ROW,COL
 ------------------------------------------------------------------------------------------------------------------------------------
   0.1858E-03 (  1,  5,  5)  0.5551E-16 (  2,  2,  8)


                                          ================================================
                                                         TIME STEP NO.  005
                                          ================================================

 FROM TIME =   305.00     TO    306.00    


                    "THKSAT          " FLOW TERMS FOR TIME STEP  5, STRESS PERIOD  5 READ UNFORMATTED ON UNIT 10
                    --------------------------------------------------------------------------------------------

                    "QXX             " FLOW TERMS FOR TIME STEP  5, STRESS PERIOD  5 READ UNFORMATTED ON UNIT 10
                    --------------------------------------------------------------------------------------------

                    "QYY             " FLOW TERMS FOR TIME STEP  5, STRESS PERIOD  5 READ UNFORMATTED ON UNIT 10
                    --------------------------------------------------------------------------------------------

                    "QZZ             " FLOW TERMS FOR TIME STEP  5, STRESS PERIOD  5 READ UNFORMATTED ON UNIT 10
                    --------------------------------------------------------------------------------------------

                    "STO             " FLOW TERMS FOR TIME STEP  5, STRESS PERIOD  5 READ UNFORMATTED ON UNIT 10
                    --------------------------------------------------------------------------------------------

 MAXIMUM STEPSIZE DURING WHICH ANY PARTICLE CANNOT MOVE MORE THAN ONE CELL
 =  1397.    (WHEN MIN. R.F.=1)  AT K=   1, I=   5, J=   9

 MAXIMUM STEPSIZE WHICH MEETS STABILITY CRITERION OF THE ADVECTION TERM
 (FOR PURE FINITE-DIFFERENCE OPTION, MIXELM=0) 
 =  628.0    (WHEN MIN. R.F.=1)  AT K=   2, I=   5, J=   5

                    "CNH             " FLOW TERMS FOR TIME STEP  5, STRESS PERIOD  5 READ UNFORMATTED ON UNIT 10
                    --------------------------------------------------------------------------------------------

                    "WEL             " FLOW TERMS FOR TIME STEP  5, STRESS PERIOD  5 READ UNFORMATTED ON UNIT 10
                    --------------------------------------------------------------------------------------------

                    "GHB             " FLOW TERMS FOR TIME STEP  5, STRESS PERIOD  5 READ UNFORMATTED ON UNIT 10
                    --------------------------------------------------------------------------------------------


 TOTAL NUMBER OF POINT SOURCES/SINKS PRESENT IN THE FLOW MODEL =    41

 MAXIMUM STEPSIZE WHICH MEETS STABILITY CRITERION OF THE SINK & SOURCE TERM
 =  6969.    (WHEN MIN. R.F.=1)  AT K=   2, I=  10, J=   1

 MAXIMUM STEPSIZE WHICH MEETS STABILITY CRITERION OF THE DISPERSION TERM
 =  1761.    (WHEN MIN. R.F.=1)  AT K=   1, I=   5, J=   5


     1 CALLS TO GCG PACKAGE FOR TRANSPORT TIME STEP   1 IN FLOW TIME STEP   5 STRESS PERIOD   5
     2 TOTAL ITERATIONS
  MAXIMUM CONCENTRATION CHANGES FOR EACH ITERATION:
  MAX. CHANGE LAYER,ROW,COL MAX. CHANGE LAYER,ROW,COL MAX. CHANGE LAYER,ROW,COL MAX. CHANGE LAYER,ROW,COL MAX. CHANGE LAYER,ROW,COL
 ------------------------------------------------------------------------------------------------------------------------------------
   0.2463E-03 (  1,  5,  5)  0.5551E-16 (  2,  2,  8)


                                          ================================================
                                                         TIME STEP NO.  006
                                          ================================================

 FROM TIME =   306.00     TO    307.00    


                    "THKSAT          " FLOW TERMS FOR TIME STEP  6, STRESS PERIOD  5 READ UNFORMATTED ON UNIT 10
                    --------------------------------------------------------------------------------------------

                    "QXX             " FLOW TERMS FOR TIME STEP  6, STRESS PERIOD  5 READ UNFORMATTED ON UNIT 10
                    --------------------------------------------------------------------------------------------

                    "QYY             " FLOW TERMS FOR TIME STEP  6, STRESS PERIOD  5 READ UNFORMATTED ON UNIT 10
                    --------------------------------------------------------------------------------------------

                    "QZZ             " FLOW TERMS FOR TIME STEP  6, STRESS PERIOD  5 READ UNFORMATTED ON UNIT 10
                    --------------------------------------------------------------------------------------------

                    "STO             " FLOW TERMS FOR TIME STEP  6, STRESS PERIOD  5 READ UNFORMATTED ON UNIT 10
                    --------------------------------------------------------------------------------------------

 MAXIMUM STEPSIZE DURING WHICH ANY PARTICLE CANNOT MOVE MORE THAN ONE CELL
 =  1399.    (WHEN MIN. R.F.=1)  AT K=   1, I=   5, J=   9

 MAXIMUM STEPSIZE WHICH MEETS STABILITY CRITERION OF THE ADVECTION TERM
 (FOR PURE FINITE-DIFFERENCE OPTION, MIXELM=0) 
 =  543.1    (WHEN MIN. R.F.=1)  AT K=   2, I=   5, J=   5

                    "CNH             " FLOW TERMS FOR TIME STEP  6, STRESS PERIOD  5 READ UNFORMATTED ON UNIT 10
                    --------------------------------------------------------------------------------------------

                    "WEL             " FLOW TERMS FOR TIME STEP  6, STRESS PERIOD  5 READ UNFORMATTED ON UNIT 10
                    --------------------------------------------------------------------------------------------

                    "GHB             " FLOW TERMS FOR TIME STEP  6, STRESS PERIOD  5 READ UNFORMATTED ON UNIT 10
                    --------------------------------------------------------------------------------------------


 TOTAL NUMBER OF POINT SOURCES/SINKS PRESENT IN THE FLOW MODEL =    41

 MAXIMUM STEPSIZE WHICH MEETS STABILITY CRITERION OF THE SINK & SOURCE TERM
 =  6947.    (WHEN MIN. R.F.=1)  AT K=   2, I=  10, J=   1

 MAXIMUM STEPSIZE WHICH MEETS STABILITY CRITERION OF THE DISPERSION TERM
 =  1417.    (WHEN MIN. R.F.=1)  AT K=   1, I=   5, J=   5


     1 CALLS TO GCG PACKAGE FOR TRANSPORT TIME STEP   1 IN FLOW TIME STEP   6 STRESS PERIOD   5
     2 TOTAL ITERATIONS
  MAXIMUM CONCENTRATION CHANGES FOR EACH ITERATION:
  MAX. CHANGE LAYER,ROW,COL MAX. CHANGE LAYER,ROW,COL MAX. CHANGE LAYER,ROW,COL MAX. CHANGE LAYER,ROW,COL MAX. CHANGE LAYER,ROW,COL
 ------------------------------------------------------------------------------------------------------------------------------------
   0.2995E-03 (  1,  5,  5)  0.5551E-16 (  2,  2,  8)


                                          ================================================
                                                         TIME STEP NO.  007
                                          ================================================

 FROM TIME =   307.00     TO    308.00    


                    "THKSAT          " FLOW TERMS FOR TIME STEP  7, STRESS PERIOD  5 READ UNFORMATTED ON UNIT 10
                    --------------------------------------------------------------------------------------------

                    "QXX             " FLOW TERMS FOR TIME STEP  7, STRESS PERIOD  5 READ UNFORMATTED ON UNIT 10
                    --------------------------------------------------------------------------------------------

                    "QYY             " FLOW TERMS FOR TIME STEP  7, STRESS PERIOD  5 READ UNFORMATTED ON UNIT 10
                    --------------------------------------------------------------------------------------------

                    "QZZ             " FLOW TERMS FOR TIME STEP  7, STRESS PERIOD  5 READ UNFORMATTED ON UNIT 10
                    --------------------------------------------------------------------------------------------

                    "STO             " FLOW TERMS FOR TIME STEP  7, STRESS PERIOD  5 READ UNFORMATTED ON UNIT 10
                    --------------------------------------------------------------------------------------------

 MAXIMUM STEPSIZE DURING WHICH ANY PARTICLE CANNOT MOVE MORE THAN ONE CELL
 =  1402.    (WHEN MIN. R.F.=1)  AT K=   1, I=   5, J=   9

 MAXIMUM STEPSIZE WHICH MEETS STABILITY CRITERION OF THE ADVECTION TERM
 (FOR PURE FINITE-DIFFERENCE OPTION, MIXELM=0) 
 =  486.5    (WHEN MIN. R.F.=1)  AT K=   2, I=   5, J=   5

                    "CNH             " FLOW TERMS FOR TIME STEP  7, STRESS PERIOD  5 READ UNFORMATTED ON UNIT 10
                    --------------------------------------------------------------------------------------------

                    "WEL             " FLOW TERMS FOR TIME STEP  7, STRESS PERIOD  5 READ UNFORMATTED ON UNIT 10
                    --------------------------------------------------------------------------------------------

                    "GHB             " FLOW TERMS FOR TIME STEP  7, STRESS PERIOD  5 READ UNFORMATTED ON UNIT 10
                    --------------------------------------------------------------------------------------------


 TOTAL NUMBER OF POINT SOURCES/SINKS PRESENT IN THE FLOW MODEL =    41

 MAXIMUM STEPSIZE WHICH MEETS STABILITY CRITERION OF THE SINK & SOURCE TERM
 =  6926.    (WHEN MIN. R.F.=1)  AT K=   2, I=  10, J=   1

 MAXIMUM STEPSIZE WHICH MEETS STABILITY CRITERION OF THE DISPERSION TERM
 =  1209.    (WHEN MIN. R.F.=1)  AT K=   1, I=   5, J=   5


     1 CALLS TO GCG PACKAGE FOR TRANSPORT TIME STEP   1 IN FLOW TIME STEP   7 STRESS PERIOD   5
     2 TOTAL ITERATIONS
  MAXIMUM CONCENTRATION CHANGES FOR EACH ITERATION:
  MAX. CHANGE LAYER,ROW,COL MAX. CHANGE LAYER,ROW,COL MAX. CHANGE LAYER,ROW,COL MAX. CHANGE LAYER,ROW,COL MAX. CHANGE LAYER,ROW,COL
 ------------------------------------------------------------------------------------------------------------------------------------
   0.3461E-03 (  1,  5,  5)  0.5551E-16 (  2,  2,  8)


                                          ================================================
                                                         TIME STEP NO.  008
                                          ================================================

 FROM TIME =   308.00     TO    309.00    


                    "THKSAT          " FLOW TERMS FOR TIME STEP  8, STRESS PERIOD  5 READ UNFORMATTED ON UNIT 10
                    --------------------------------------------------------------------------------------------

                    "QXX             " FLOW TERMS FOR TIME STEP  8, STRESS PERIOD  5 READ UNFORMATTED ON UNIT 10
                    --------------------------------------------------------------------------------------------

                    "QYY             " FLOW TERMS FOR TIME STEP  8, STRESS PERIOD  5 READ UNFORMATTED ON UNIT 10
                    --------------------------------------------------------------------------------------------

                    "QZZ             " FLOW TERMS FOR TIME STEP  8, STRESS PERIOD  5 READ UNFORMATTED ON UNIT 10
                    --------------------------------------------------------------------------------------------

                    "STO             " FLOW TERMS FOR TIME STEP  8, STRESS PERIOD  5 READ UNFORMATTED ON UNIT 10
                    --------------------------------------------------------------------------------------------

 MAXIMUM STEPSIZE DURING WHICH ANY PARTICLE CANNOT MOVE MORE THAN ONE CELL
 =  1405.    (WHEN MIN. R.F.=1)  AT K=   1, I=   5, J=   9

 MAXIMUM STEPSIZE WHICH MEETS STABILITY CRITERION OF THE ADVECTION TERM
 (FOR PURE FINITE-DIFFERENCE OPTION, MIXELM=0) 
 =  446.3    (WHEN MIN. R.F.=1)  AT K=   2, I=   5, J=   5

                    "CNH             " FLOW TERMS FOR TIME STEP  8, STRESS PERIOD  5 READ UNFORMATTED ON UNIT 10
                    --------------------------------------------------------------------------------------------

                    "WEL             " FLOW TERMS FOR TIME STEP  8, STRESS PERIOD  5 READ UNFORMATTED ON UNIT 10
                    --------------------------------------------------------------------------------------------

                    "GHB             " FLOW TERMS FOR TIME STEP  8, STRESS PERIOD  5 READ UNFORMATTED ON UNIT 10
                    --------------------------------------------------------------------------------------------


 TOTAL NUMBER OF POINT SOURCES/SINKS PRESENT IN THE FLOW MODEL =    41

 MAXIMUM STEPSIZE WHICH MEETS STABILITY CRITERION OF THE SINK & SOURCE TERM
 =  6905.    (WHEN MIN. R.F.=1)  AT K=   2, I=  10, J=   1

 MAXIMUM STEPSIZE WHICH MEETS STABILITY CRITERION OF THE DISPERSION TERM
 =  1072.    (WHEN MIN. R.F.=1)  AT K=   1, I=   5, J=   5


     1 CALLS TO GCG PACKAGE FOR TRANSPORT TIME STEP   1 IN FLOW TIME STEP   8 STRESS PERIOD   5
     2 TOTAL ITERATIONS
  MAXIMUM CONCENTRATION CHANGES FOR EACH ITERATION:
  MAX. CHANGE LAYER,ROW,COL MAX. CHANGE LAYER,ROW,COL MAX. CHANGE LAYER,ROW,COL MAX. CHANGE LAYER,ROW,COL MAX. CHANGE LAYER,ROW,COL
 ------------------------------------------------------------------------------------------------------------------------------------
   0.3873E-03 (  1,  5,  5)  0.5551E-16 (  2,  2,  8)


                                          ================================================
                                                         TIME STEP NO.  009
                                          ================================================

 FROM TIME =   309.00     TO    310.00    


                    "THKSAT          " FLOW TERMS FOR TIME STEP  9, STRESS PERIOD  5 READ UNFORMATTED ON UNIT 10
                    --------------------------------------------------------------------------------------------

                    "QXX             " FLOW TERMS FOR TIME STEP  9, STRESS PERIOD  5 READ UNFORMATTED ON UNIT 10
                    --------------------------------------------------------------------------------------------

                    "QYY             " FLOW TERMS FOR TIME STEP  9, STRESS PERIOD  5 READ UNFORMATTED ON UNIT 10
                    --------------------------------------------------------------------------------------------

                    "QZZ             " FLOW TERMS FOR TIME STEP  9, STRESS PERIOD  5 READ UNFORMATTED ON UNIT 10
                    --------------------------------------------------------------------------------------------

                    "STO             " FLOW TERMS FOR TIME STEP  9, STRESS PERIOD  5 READ UNFORMATTED ON UNIT 10
                    --------------------------------------------------------------------------------------------

 MAXIMUM STEPSIZE DURING WHICH ANY PARTICLE CANNOT MOVE MORE THAN ONE CELL
 =  1395.    (WHEN MIN. R.F.=1)  AT K=   2, I=   5, J=   5

 MAXIMUM STEPSIZE WHICH MEETS STABILITY CRITERION OF THE ADVECTION TERM
 (FOR PURE FINITE-DIFFERENCE OPTION, MIXELM=0) 
 =  416.4    (WHEN MIN. R.F.=1)  AT K=   2, I=   5, J=   5

                    "CNH             " FLOW TERMS FOR TIME STEP  9, STRESS PERIOD  5 READ UNFORMATTED ON UNIT 10
                    --------------------------------------------------------------------------------------------

                    "WEL             " FLOW TERMS FOR TIME STEP  9, STRESS PERIOD  5 READ UNFORMATTED ON UNIT 10
                    --------------------------------------------------------------------------------------------

                    "GHB             " FLOW TERMS FOR TIME STEP  9, STRESS PERIOD  5 READ UNFORMATTED ON UNIT 10
                    --------------------------------------------------------------------------------------------


 TOTAL NUMBER OF POINT SOURCES/SINKS PRESENT IN THE FLOW MODEL =    41

 MAXIMUM STEPSIZE WHICH MEETS STABILITY CRITERION OF THE SINK & SOURCE TERM
 =  6884.    (WHEN MIN. R.F.=1)  AT K=   2, I=  10, J=   1

 MAXIMUM STEPSIZE WHICH MEETS STABILITY CRITERION OF THE DISPERSION TERM
 =  973.9    (WHEN MIN. R.F.=1)  AT K=   1, I=   5, J=   5


     1 CALLS TO GCG PACKAGE FOR TRANSPORT TIME STEP   1 IN FLOW TIME STEP   9 STRESS PERIOD   5
     2 TOTAL ITERATIONS
  MAXIMUM CONCENTRATION CHANGES FOR EACH ITERATION:
  MAX. CHANGE LAYER,ROW,COL MAX. CHANGE LAYER,ROW,COL MAX. CHANGE LAYER,ROW,COL MAX. CHANGE LAYER,ROW,COL MAX. CHANGE LAYER,ROW,COL
 ------------------------------------------------------------------------------------------------------------------------------------
   0.4230E-03 (  1,  5,  5)  0.2776E-16 (  1,  1,  7)


                                          ================================================
                                                         TIME STEP NO.  010
                                          ================================================

 FROM TIME =   310.00     TO    311.00    


                    "THKSAT          " FLOW TERMS FOR TIME STEP 10, STRESS PERIOD  5 READ UNFORMATTED ON UNIT 10
                    --------------------------------------------------------------------------------------------

                    "QXX             " FLOW TERMS FOR TIME STEP 10, STRESS PERIOD  5 READ UNFORMATTED ON UNIT 10
                    --------------------------------------------------------------------------------------------

                    "QYY             " FLOW TERMS FOR TIME STEP 10, STRESS PERIOD  5 READ UNFORMATTED ON UNIT 10
                    --------------------------------------------------------------------------------------------

                    "QZZ             " FLOW TERMS FOR TIME STEP 10, STRESS PERIOD  5 READ UNFORMATTED ON UNIT 10
                    --------------------------------------------------------------------------------------------

                    "STO             " FLOW TERMS FOR TIME STEP 10, STRESS PERIOD  5 READ UNFORMATTED ON UNIT 10
                    --------------------------------------------------------------------------------------------

 MAXIMUM STEPSIZE DURING WHICH ANY PARTICLE CANNOT MOVE MORE THAN ONE CELL
 =  1313.    (WHEN MIN. R.F.=1)  AT K=   2, I=   5, J=   5

 MAXIMUM STEPSIZE WHICH MEETS STABILITY CRITERION OF THE ADVECTION TERM
 (FOR PURE FINITE-DIFFERENCE OPTION, MIXELM=0) 
 =  393.3    (WHEN MIN. R.F.=1)  AT K=   2, I=   5, J=   5

                    "CNH             " FLOW TERMS FOR TIME STEP 10, STRESS PERIOD  5 READ UNFORMATTED ON UNIT 10
                    --------------------------------------------------------------------------------------------

                    "WEL             " FLOW TERMS FOR TIME STEP 10, STRESS PERIOD  5 READ UNFORMATTED ON UNIT 10
                    --------------------------------------------------------------------------------------------

                    "GHB             " FLOW TERMS FOR TIME STEP 10, STRESS PERIOD  5 READ UNFORMATTED ON UNIT 10
                    --------------------------------------------------------------------------------------------


 TOTAL NUMBER OF POINT SOURCES/SINKS PRESENT IN THE FLOW MODEL =    41

 MAXIMUM STEPSIZE WHICH MEETS STABILITY CRITERION OF THE SINK & SOURCE TERM
 =  6864.    (WHEN MIN. R.F.=1)  AT K=   2, I=  10, J=   1

 MAXIMUM STEPSIZE WHICH MEETS STABILITY CRITERION OF THE DISPERSION TERM
 =  901.3    (WHEN MIN. R.F.=1)  AT K=   1, I=   5, J=   5


     1 CALLS TO GCG PACKAGE FOR TRANSPORT TIME STEP   1 IN FLOW TIME STEP  10 STRESS PERIOD   5
     2 TOTAL ITERATIONS
  MAXIMUM CONCENTRATION CHANGES FOR EACH ITERATION:
  MAX. CHANGE LAYER,ROW,COL MAX. CHANGE LAYER,ROW,COL MAX. CHANGE LAYER,ROW,COL MAX. CHANGE LAYER,ROW,COL MAX. CHANGE LAYER,ROW,COL
 ------------------------------------------------------------------------------------------------------------------------------------
   0.4551E-03 (  1,  5,  5)  0.5551E-16 (  2,  2,  8)


                                          ================================================
                                                         TIME STEP NO.  011
                                          ================================================

 FROM TIME =   311.00     TO    312.00    


                    "THKSAT          " FLOW TERMS FOR TIME STEP 11, STRESS PERIOD  5 READ UNFORMATTED ON UNIT 10
                    --------------------------------------------------------------------------------------------

                    "QXX             " FLOW TERMS FOR TIME STEP 11, STRESS PERIOD  5 READ UNFORMATTED ON UNIT 10
                    --------------------------------------------------------------------------------------------

                    "QYY             " FLOW TERMS FOR TIME STEP 11, STRESS PERIOD  5 READ UNFORMATTED ON UNIT 10
                    --------------------------------------------------------------------------------------------

                    "QZZ             " FLOW TERMS FOR TIME STEP 11, STRESS PERIOD  5 READ UNFORMATTED ON UNIT 10
                    --------------------------------------------------------------------------------------------

                    "STO             " FLOW TERMS FOR TIME STEP 11, STRESS PERIOD  5 READ UNFORMATTED ON UNIT 10
                    --------------------------------------------------------------------------------------------

 MAXIMUM STEPSIZE DURING WHICH ANY PARTICLE CANNOT MOVE MORE THAN ONE CELL
 =  1248.    (WHEN MIN. R.F.=1)  AT K=   2, I=   5, J=   5

 MAXIMUM STEPSIZE WHICH MEETS STABILITY CRITERION OF THE ADVECTION TERM
 (FOR PURE FINITE-DIFFERENCE OPTION, MIXELM=0) 
 =  375.0    (WHEN MIN. R.F.=1)  AT K=   2, I=   5, J=   5

                    "CNH             " FLOW TERMS FOR TIME STEP 11, STRESS PERIOD  5 READ UNFORMATTED ON UNIT 10
                    --------------------------------------------------------------------------------------------

                    "WEL             " FLOW TERMS FOR TIME STEP 11, STRESS PERIOD  5 READ UNFORMATTED ON UNIT 10
                    --------------------------------------------------------------------------------------------

                    "GHB             " FLOW TERMS FOR TIME STEP 11, STRESS PERIOD  5 READ UNFORMATTED ON UNIT 10
                    --------------------------------------------------------------------------------------------


 TOTAL NUMBER OF POINT SOURCES/SINKS PRESENT IN THE FLOW MODEL =    41

 MAXIMUM STEPSIZE WHICH MEETS STABILITY CRITERION OF THE SINK & SOURCE TERM
 =  6843.    (WHEN MIN. R.F.=1)  AT K=   2, I=  10, J=   1

 MAXIMUM STEPSIZE WHICH MEETS STABILITY CRITERION OF THE DISPERSION TERM
 =  845.2    (WHEN MIN. R.F.=1)  AT K=   1, I=   5, J=   5


     1 CALLS TO GCG PACKAGE FOR TRANSPORT TIME STEP   1 IN FLOW TIME STEP  11 STRESS PERIOD   5
     2 TOTAL ITERATIONS
  MAXIMUM CONCENTRATION CHANGES FOR EACH ITERATION:
  MAX. CHANGE LAYER,ROW,COL MAX. CHANGE LAYER,ROW,COL MAX. CHANGE LAYER,ROW,COL MAX. CHANGE LAYER,ROW,COL MAX. CHANGE LAYER,ROW,COL
 ------------------------------------------------------------------------------------------------------------------------------------
   0.4833E-03 (  1,  5,  5)  0.5551E-16 (  2,  2,  8)


                                          ================================================
                                                         TIME STEP NO.  012
                                          ================================================

 FROM TIME =   312.00     TO    313.00    


                    "THKSAT          " FLOW TERMS FOR TIME STEP 12, STRESS PERIOD  5 READ UNFORMATTED ON UNIT 10
                    --------------------------------------------------------------------------------------------

                    "QXX             " FLOW TERMS FOR TIME STEP 12, STRESS PERIOD  5 READ UNFORMATTED ON UNIT 10
                    --------------------------------------------------------------------------------------------

                    "QYY             " FLOW TERMS FOR TIME STEP 12, STRESS PERIOD  5 READ UNFORMATTED ON UNIT 10
                    --------------------------------------------------------------------------------------------

                    "QZZ             " FLOW TERMS FOR TIME STEP 12, STRESS PERIOD  5 READ UNFORMATTED ON UNIT 10
                    --------------------------------------------------------------------------------------------

                    "STO             " FLOW TERMS FOR TIME STEP 12, STRESS PERIOD  5 READ UNFORMATTED ON UNIT 10
                    --------------------------------------------------------------------------------------------

 MAXIMUM STEPSIZE DURING WHICH ANY PARTICLE CANNOT MOVE MORE THAN ONE CELL
 =  1196.    (WHEN MIN. R.F.=1)  AT K=   2, I=   5, J=   5

 MAXIMUM STEPSIZE WHICH MEETS STABILITY CRITERION OF THE ADVECTION TERM
 (FOR PURE FINITE-DIFFERENCE OPTION, MIXELM=0) 
 =  360.2    (WHEN MIN. R.F.=1)  AT K=   2, I=   5, J=   5

                    "CNH             " FLOW TERMS FOR TIME STEP 12, STRESS PERIOD  5 READ UNFORMATTED ON UNIT 10
                    --------------------------------------------------------------------------------------------

                    "WEL             " FLOW TERMS FOR TIME STEP 12, STRESS PERIOD  5 READ UNFORMATTED ON UNIT 10
                    --------------------------------------------------------------------------------------------

                    "GHB             " FLOW TERMS FOR TIME STEP 12, STRESS PERIOD  5 READ UNFORMATTED ON UNIT 10
                    --------------------------------------------------------------------------------------------


 TOTAL NUMBER OF POINT SOURCES/SINKS PRESENT IN THE FLOW MODEL =    41

 MAXIMUM STEPSIZE WHICH MEETS STABILITY CRITERION OF THE SINK & SOURCE TERM
 =  6823.    (WHEN MIN. R.F.=1)  AT K=   2, I=  10, J=   1

 MAXIMUM STEPSIZE WHICH MEETS STABILITY CRITERION OF THE DISPERSION TERM
 =  800.7    (WHEN MIN. R.F.=1)  AT K=   1, I=   5, J=   5


     1 CALLS TO GCG PACKAGE FOR TRANSPORT TIME STEP   1 IN FLOW TIME STEP  12 STRESS PERIOD   5
     2 TOTAL ITERATIONS
  MAXIMUM CONCENTRATION CHANGES FOR EACH ITERATION:
  MAX. CHANGE LAYER,ROW,COL MAX. CHANGE LAYER,ROW,COL MAX. CHANGE LAYER,ROW,COL MAX. CHANGE LAYER,ROW,COL MAX. CHANGE LAYER,ROW,COL
 ------------------------------------------------------------------------------------------------------------------------------------
   0.5085E-03 (  1,  5,  5)  0.2776E-16 (  1,  1,  7)


                                          ================================================
                                                         TIME STEP NO.  013
                                          ================================================

 FROM TIME =   313.00     TO    314.00    


                    "THKSAT          " FLOW TERMS FOR TIME STEP 13, STRESS PERIOD  5 READ UNFORMATTED ON UNIT 10
                    --------------------------------------------------------------------------------------------

                    "QXX             " FLOW TERMS FOR TIME STEP 13, STRESS PERIOD  5 READ UNFORMATTED ON UNIT 10
                    --------------------------------------------------------------------------------------------

                    "QYY             " FLOW TERMS FOR TIME STEP 13, STRESS PERIOD  5 READ UNFORMATTED ON UNIT 10
                    --------------------------------------------------------------------------------------------

                    "QZZ             " FLOW TERMS FOR TIME STEP 13, STRESS PERIOD  5 READ UNFORMATTED ON UNIT 10
                    --------------------------------------------------------------------------------------------

                    "STO             " FLOW TERMS FOR TIME STEP 13, STRESS PERIOD  5 READ UNFORMATTED ON UNIT 10
                    --------------------------------------------------------------------------------------------

 MAXIMUM STEPSIZE DURING WHICH ANY PARTICLE CANNOT MOVE MORE THAN ONE CELL
 =  1154.    (WHEN MIN. R.F.=1)  AT K=   2, I=   5, J=   5

 MAXIMUM STEPSIZE WHICH MEETS STABILITY CRITERION OF THE ADVECTION TERM
 (FOR PURE FINITE-DIFFERENCE OPTION, MIXELM=0) 
 =  348.1    (WHEN MIN. R.F.=1)  AT K=   2, I=   5, J=   5

                    "CNH             " FLOW TERMS FOR TIME STEP 13, STRESS PERIOD  5 READ UNFORMATTED ON UNIT 10
                    --------------------------------------------------------------------------------------------

                    "WEL             " FLOW TERMS FOR TIME STEP 13, STRESS PERIOD  5 READ UNFORMATTED ON UNIT 10
                    --------------------------------------------------------------------------------------------

                    "GHB             " FLOW TERMS FOR TIME STEP 13, STRESS PERIOD  5 READ UNFORMATTED ON UNIT 10
                    --------------------------------------------------------------------------------------------


 TOTAL NUMBER OF POINT SOURCES/SINKS PRESENT IN THE FLOW MODEL =    41

 MAXIMUM STEPSIZE WHICH MEETS STABILITY CRITERION OF THE SINK & SOURCE TERM
 =  6802.    (WHEN MIN. R.F.=1)  AT K=   2, I=  10, J=   1

 MAXIMUM STEPSIZE WHICH MEETS STABILITY CRITERION OF THE DISPERSION TERM
 =  764.6    (WHEN MIN. R.F.=1)  AT K=   1, I=   5, J=   5


     1 CALLS TO GCG PACKAGE FOR TRANSPORT TIME STEP   1 IN FLOW TIME STEP  13 STRESS PERIOD   5
     2 TOTAL ITERATIONS
  MAXIMUM CONCENTRATION CHANGES FOR EACH ITERATION:
  MAX. CHANGE LAYER,ROW,COL MAX. CHANGE LAYER,ROW,COL MAX. CHANGE LAYER,ROW,COL MAX. CHANGE LAYER,ROW,COL MAX. CHANGE LAYER,ROW,COL
 ------------------------------------------------------------------------------------------------------------------------------------
   0.5313E-03 (  1,  5,  5)  0.2776E-16 (  1,  1,  7)


                                          ================================================
                                                         TIME STEP NO.  014
                                          ================================================

 FROM TIME =   314.00     TO    315.00    


                    "THKSAT          " FLOW TERMS FOR TIME STEP 14, STRESS PERIOD  5 READ UNFORMATTED ON UNIT 10
                    --------------------------------------------------------------------------------------------

                    "QXX             " FLOW TERMS FOR TIME STEP 14, STRESS PERIOD  5 READ UNFORMATTED ON UNIT 10
                    --------------------------------------------------------------------------------------------

                    "QYY             " FLOW TERMS FOR TIME STEP 14, STRESS PERIOD  5 READ UNFORMATTED ON UNIT 10
                    --------------------------------------------------------------------------------------------

                    "QZZ             " FLOW TERMS FOR TIME STEP 14, STRESS PERIOD  5 READ UNFORMATTED ON UNIT 10
                    --------------------------------------------------------------------------------------------

                    "STO             " FLOW TERMS FOR TIME STEP 14, STRESS PERIOD  5 READ UNFORMATTED ON UNIT 10
                    --------------------------------------------------------------------------------------------

 MAXIMUM STEPSIZE DURING WHICH ANY PARTICLE CANNOT MOVE MORE THAN ONE CELL
 =  1118.    (WHEN MIN. R.F.=1)  AT K=   2, I=   5, J=   5

 MAXIMUM STEPSIZE WHICH MEETS STABILITY CRITERION OF THE ADVECTION TERM
 (FOR PURE FINITE-DIFFERENCE OPTION, MIXELM=0) 
 =  337.9    (WHEN MIN. R.F.=1)  AT K=   2, I=   5, J=   5

                    "CNH             " FLOW TERMS FOR TIME STEP 14, STRESS PERIOD  5 READ UNFORMATTED ON UNIT 10
                    --------------------------------------------------------------------------------------------

                    "WEL             " FLOW TERMS FOR TIME STEP 14, STRESS PERIOD  5 READ UNFORMATTED ON UNIT 10
                    --------------------------------------------------------------------------------------------

                    "GHB             " FLOW TERMS FOR TIME STEP 14, STRESS PERIOD  5 READ UNFORMATTED ON UNIT 10
                    --------------------------------------------------------------------------------------------


 TOTAL NUMBER OF POINT SOURCES/SINKS PRESENT IN THE FLOW MODEL =    41

 MAXIMUM STEPSIZE WHICH MEETS STABILITY CRITERION OF THE SINK & SOURCE TERM
 =  6781.    (WHEN MIN. R.F.=1)  AT K=   2, I=  10, J=   1

 MAXIMUM STEPSIZE WHICH MEETS STABILITY CRITERION OF THE DISPERSION TERM
 =  734.8    (WHEN MIN. R.F.=1)  AT K=   1, I=   5, J=   5


     1 CALLS TO GCG PACKAGE FOR TRANSPORT TIME STEP   1 IN FLOW TIME STEP  14 STRESS PERIOD   5
     2 TOTAL ITERATIONS
  MAXIMUM CONCENTRATION CHANGES FOR EACH ITERATION:
  MAX. CHANGE LAYER,ROW,COL MAX. CHANGE LAYER,ROW,COL MAX. CHANGE LAYER,ROW,COL MAX. CHANGE LAYER,ROW,COL MAX. CHANGE LAYER,ROW,COL
 ------------------------------------------------------------------------------------------------------------------------------------
   0.5516E-03 (  1,  5,  5)  0.2776E-16 (  1,  1,  7)


                                          ================================================
                                                         TIME STEP NO.  015
                                          ================================================

 FROM TIME =   315.00     TO    316.00    


                    "THKSAT          " FLOW TERMS FOR TIME STEP 15, STRESS PERIOD  5 READ UNFORMATTED ON UNIT 10
                    --------------------------------------------------------------------------------------------

                    "QXX             " FLOW TERMS FOR TIME STEP 15, STRESS PERIOD  5 READ UNFORMATTED ON UNIT 10
                    --------------------------------------------------------------------------------------------

                    "QYY             " FLOW TERMS FOR TIME STEP 15, STRESS PERIOD  5 READ UNFORMATTED ON UNIT 10
                    --------------------------------------------------------------------------------------------

                    "QZZ             " FLOW TERMS FOR TIME STEP 15, STRESS PERIOD  5 READ UNFORMATTED ON UNIT 10
                    --------------------------------------------------------------------------------------------

                    "STO             " FLOW TERMS FOR TIME STEP 15, STRESS PERIOD  5 READ UNFORMATTED ON UNIT 10
                    --------------------------------------------------------------------------------------------

 MAXIMUM STEPSIZE DURING WHICH ANY PARTICLE CANNOT MOVE MORE THAN ONE CELL
 =  1088.    (WHEN MIN. R.F.=1)  AT K=   2, I=   5, J=   5

 MAXIMUM STEPSIZE WHICH MEETS STABILITY CRITERION OF THE ADVECTION TERM
 (FOR PURE FINITE-DIFFERENCE OPTION, MIXELM=0) 
 =  329.3    (WHEN MIN. R.F.=1)  AT K=   2, I=   5, J=   5

                    "CNH             " FLOW TERMS FOR TIME STEP 15, STRESS PERIOD  5 READ UNFORMATTED ON UNIT 10
                    --------------------------------------------------------------------------------------------

                    "WEL             " FLOW TERMS FOR TIME STEP 15, STRESS PERIOD  5 READ UNFORMATTED ON UNIT 10
                    --------------------------------------------------------------------------------------------

                    "GHB             " FLOW TERMS FOR TIME STEP 15, STRESS PERIOD  5 READ UNFORMATTED ON UNIT 10
                    --------------------------------------------------------------------------------------------


 TOTAL NUMBER OF POINT SOURCES/SINKS PRESENT IN THE FLOW MODEL =    41

 MAXIMUM STEPSIZE WHICH MEETS STABILITY CRITERION OF THE SINK & SOURCE TERM
 =  6760.    (WHEN MIN. R.F.=1)  AT K=   2, I=  10, J=   1

 MAXIMUM STEPSIZE WHICH MEETS STABILITY CRITERION OF THE DISPERSION TERM
 =  709.7    (WHEN MIN. R.F.=1)  AT K=   1, I=   5, J=   5


     1 CALLS TO GCG PACKAGE FOR TRANSPORT TIME STEP   1 IN FLOW TIME STEP  15 STRESS PERIOD   5
     2 TOTAL ITERATIONS
  MAXIMUM CONCENTRATION CHANGES FOR EACH ITERATION:
  MAX. CHANGE LAYER,ROW,COL MAX. CHANGE LAYER,ROW,COL MAX. CHANGE LAYER,ROW,COL MAX. CHANGE LAYER,ROW,COL MAX. CHANGE LAYER,ROW,COL
 ------------------------------------------------------------------------------------------------------------------------------------
   0.5700E-03 (  1,  5,  5)  0.2776E-16 (  1,  1,  7)


                                          ================================================
                                                         TIME STEP NO.  016
                                          ================================================

 FROM TIME =   316.00     TO    317.00    


                    "THKSAT          " FLOW TERMS FOR TIME STEP 16, STRESS PERIOD  5 READ UNFORMATTED ON UNIT 10
                    --------------------------------------------------------------------------------------------

                    "QXX             " FLOW TERMS FOR TIME STEP 16, STRESS PERIOD  5 READ UNFORMATTED ON UNIT 10
                    --------------------------------------------------------------------------------------------

                    "QYY             " FLOW TERMS FOR TIME STEP 16, STRESS PERIOD  5 READ UNFORMATTED ON UNIT 10
                    --------------------------------------------------------------------------------------------

                    "QZZ             " FLOW TERMS FOR TIME STEP 16, STRESS PERIOD  5 READ UNFORMATTED ON UNIT 10
                    --------------------------------------------------------------------------------------------

                    "STO             " FLOW TERMS FOR TIME STEP 16, STRESS PERIOD  5 READ UNFORMATTED ON UNIT 10
                    --------------------------------------------------------------------------------------------

 MAXIMUM STEPSIZE DURING WHICH ANY PARTICLE CANNOT MOVE MORE THAN ONE CELL
 =  1062.    (WHEN MIN. R.F.=1)  AT K=   2, I=   5, J=   5

 MAXIMUM STEPSIZE WHICH MEETS STABILITY CRITERION OF THE ADVECTION TERM
 (FOR PURE FINITE-DIFFERENCE OPTION, MIXELM=0) 
 =  321.9    (WHEN MIN. R.F.=1)  AT K=   2, I=   5, J=   5

                    "CNH             " FLOW TERMS FOR TIME STEP 16, STRESS PERIOD  5 READ UNFORMATTED ON UNIT 10
                    --------------------------------------------------------------------------------------------

                    "WEL             " FLOW TERMS FOR TIME STEP 16, STRESS PERIOD  5 READ UNFORMATTED ON UNIT 10
                    --------------------------------------------------------------------------------------------

                    "GHB             " FLOW TERMS FOR TIME STEP 16, STRESS PERIOD  5 READ UNFORMATTED ON UNIT 10
                    --------------------------------------------------------------------------------------------


 TOTAL NUMBER OF POINT SOURCES/SINKS PRESENT IN THE FLOW MODEL =    41

 MAXIMUM STEPSIZE WHICH MEETS STABILITY CRITERION OF THE SINK & SOURCE TERM
 =  6739.    (WHEN MIN. R.F.=1)  AT K=   2, I=  10, J=   1

 MAXIMUM STEPSIZE WHICH MEETS STABILITY CRITERION OF THE DISPERSION TERM
 =  688.4    (WHEN MIN. R.F.=1)  AT K=   1, I=   5, J=   5


     1 CALLS TO GCG PACKAGE FOR TRANSPORT TIME STEP   1 IN FLOW TIME STEP  16 STRESS PERIOD   5
     2 TOTAL ITERATIONS
  MAXIMUM CONCENTRATION CHANGES FOR EACH ITERATION:
  MAX. CHANGE LAYER,ROW,COL MAX. CHANGE LAYER,ROW,COL MAX. CHANGE LAYER,ROW,COL MAX. CHANGE LAYER,ROW,COL MAX. CHANGE LAYER,ROW,COL
 ------------------------------------------------------------------------------------------------------------------------------------
   0.5867E-03 (  1,  5,  5)  0.2776E-16 (  1,  1,  7)


                                          ================================================
                                                         TIME STEP NO.  017
                                          ================================================

 FROM TIME =   317.00     TO    318.00    


                    "THKSAT          " FLOW TERMS FOR TIME STEP 17, STRESS PERIOD  5 READ UNFORMATTED ON UNIT 10
                    --------------------------------------------------------------------------------------------

                    "QXX             " FLOW TERMS FOR TIME STEP 17, STRESS PERIOD  5 READ UNFORMATTED ON UNIT 10
                    --------------------------------------------------------------------------------------------

                    "QYY             " FLOW TERMS FOR TIME STEP 17, STRESS PERIOD  5 READ UNFORMATTED ON UNIT 10
                    --------------------------------------------------------------------------------------------

                    "QZZ             " FLOW TERMS FOR TIME STEP 17, STRESS PERIOD  5 READ UNFORMATTED ON UNIT 10
                    --------------------------------------------------------------------------------------------

                    "STO             " FLOW TERMS FOR TIME STEP 17, STRESS PERIOD  5 READ UNFORMATTED ON UNIT 10
                    --------------------------------------------------------------------------------------------

 MAXIMUM STEPSIZE DURING WHICH ANY PARTICLE CANNOT MOVE MORE THAN ONE CELL
 =  1040.    (WHEN MIN. R.F.=1)  AT K=   2, I=   5, J=   5

 MAXIMUM STEPSIZE WHICH MEETS STABILITY CRITERION OF THE ADVECTION TERM
 (FOR PURE FINITE-DIFFERENCE OPTION, MIXELM=0) 
 =  315.5    (WHEN MIN. R.F.=1)  AT K=   2, I=   5, J=   5

                    "CNH             " FLOW TERMS FOR TIME STEP 17, STRESS PERIOD  5 READ UNFORMATTED ON UNIT 10
                    --------------------------------------------------------------------------------------------

                    "WEL             " FLOW TERMS FOR TIME STEP 17, STRESS PERIOD  5 READ UNFORMATTED ON UNIT 10
                    --------------------------------------------------------------------------------------------

                    "GHB             " FLOW TERMS FOR TIME STEP 17, STRESS PERIOD  5 READ UNFORMATTED ON UNIT 10
                    --------------------------------------------------------------------------------------------


 TOTAL NUMBER OF POINT SOURCES/SINKS PRESENT IN THE FLOW MODEL =    41

 MAXIMUM STEPSIZE WHICH MEETS STABILITY CRITERION OF THE SINK & SOURCE TERM
 =  6718.    (WHEN MIN. R.F.=1)  AT K=   2, I=  10, J=   1

 MAXIMUM STEPSIZE WHICH MEETS STABILITY CRITERION OF THE DISPERSION TERM
 =  670.0    (WHEN MIN. R.F.=1)  AT K=   1, I=   5, J=   5


     1 CALLS TO GCG PACKAGE FOR TRANSPORT TIME STEP   1 IN FLOW TIME STEP  17 STRESS PERIOD   5
     2 TOTAL ITERATIONS
  MAXIMUM CONCENTRATION CHANGES FOR EACH ITERATION:
  MAX. CHANGE LAYER,ROW,COL MAX. CHANGE LAYER,ROW,COL MAX. CHANGE LAYER,ROW,COL MAX. CHANGE LAYER,ROW,COL MAX. CHANGE LAYER,ROW,COL
 ------------------------------------------------------------------------------------------------------------------------------------
   0.6021E-03 (  1,  5,  5)  0.2776E-16 (  1,  1,  7)


                                          ================================================
                                                         TIME STEP NO.  018
                                          ================================================

 FROM TIME =   318.00     TO    319.00    


                    "THKSAT          " FLOW TERMS FOR TIME STEP 18, STRESS PERIOD  5 READ UNFORMATTED ON UNIT 10
                    --------------------------------------------------------------------------------------------

                    "QXX             " FLOW TERMS FOR TIME STEP 18, STRESS PERIOD  5 READ UNFORMATTED ON UNIT 10
                    --------------------------------------------------------------------------------------------

                    "QYY             " FLOW TERMS FOR TIME STEP 18, STRESS PERIOD  5 READ UNFORMATTED ON UNIT 10
                    --------------------------------------------------------------------------------------------

                    "QZZ             " FLOW TERMS FOR TIME STEP 18, STRESS PERIOD  5 READ UNFORMATTED ON UNIT 10
                    --------------------------------------------------------------------------------------------

                    "STO             " FLOW TERMS FOR TIME STEP 18, STRESS PERIOD  5 READ UNFORMATTED ON UNIT 10
                    --------------------------------------------------------------------------------------------

 MAXIMUM STEPSIZE DURING WHICH ANY PARTICLE CANNOT MOVE MORE THAN ONE CELL
 =  1021.    (WHEN MIN. R.F.=1)  AT K=   2, I=   5, J=   5

 MAXIMUM STEPSIZE WHICH MEETS STABILITY CRITERION OF THE ADVECTION TERM
 (FOR PURE FINITE-DIFFERENCE OPTION, MIXELM=0) 
 =  309.9    (WHEN MIN. R.F.=1)  AT K=   2, I=   5, J=   5

                    "CNH             " FLOW TERMS FOR TIME STEP 18, STRESS PERIOD  5 READ UNFORMATTED ON UNIT 10
                    --------------------------------------------------------------------------------------------

                    "WEL             " FLOW TERMS FOR TIME STEP 18, STRESS PERIOD  5 READ UNFORMATTED ON UNIT 10
                    --------------------------------------------------------------------------------------------

                    "GHB             " FLOW TERMS FOR TIME STEP 18, STRESS PERIOD  5 READ UNFORMATTED ON UNIT 10
                    --------------------------------------------------------------------------------------------


 TOTAL NUMBER OF POINT SOURCES/SINKS PRESENT IN THE FLOW MODEL =    41

 MAXIMUM STEPSIZE WHICH MEETS STABILITY CRITERION OF THE SINK & SOURCE TERM
 =  6697.    (WHEN MIN. R.F.=1)  AT K=   2, I=  10, J=   1

 MAXIMUM STEPSIZE WHICH MEETS STABILITY CRITERION OF THE DISPERSION TERM
 =  653.9    (WHEN MIN. R.F.=1)  AT K=   1, I=   5, J=   5


     1 CALLS TO GCG PACKAGE FOR TRANSPORT TIME STEP   1 IN FLOW TIME STEP  18 STRESS PERIOD   5
     2 TOTAL ITERATIONS
  MAXIMUM CONCENTRATION CHANGES FOR EACH ITERATION:
  MAX. CHANGE LAYER,ROW,COL MAX. CHANGE LAYER,ROW,COL MAX. CHANGE LAYER,ROW,COL MAX. CHANGE LAYER,ROW,COL MAX. CHANGE LAYER,ROW,COL
 ------------------------------------------------------------------------------------------------------------------------------------
   0.6158E-03 (  1,  5,  5)  0.2776E-16 (  1,  1,  7)


                                          ================================================
                                                         TIME STEP NO.  019
                                          ================================================

 FROM TIME =   319.00     TO    320.00    


                    "THKSAT          " FLOW TERMS FOR TIME STEP 19, STRESS PERIOD  5 READ UNFORMATTED ON UNIT 10
                    --------------------------------------------------------------------------------------------

                    "QXX             " FLOW TERMS FOR TIME STEP 19, STRESS PERIOD  5 READ UNFORMATTED ON UNIT 10
                    --------------------------------------------------------------------------------------------

                    "QYY             " FLOW TERMS FOR TIME STEP 19, STRESS PERIOD  5 READ UNFORMATTED ON UNIT 10
                    --------------------------------------------------------------------------------------------

                    "QZZ             " FLOW TERMS FOR TIME STEP 19, STRESS PERIOD  5 READ UNFORMATTED ON UNIT 10
                    --------------------------------------------------------------------------------------------

                    "STO             " FLOW TERMS FOR TIME STEP 19, STRESS PERIOD  5 READ UNFORMATTED ON UNIT 10
                    --------------------------------------------------------------------------------------------

 MAXIMUM STEPSIZE DURING WHICH ANY PARTICLE CANNOT MOVE MORE THAN ONE CELL
 =  1004.    (WHEN MIN. R.F.=1)  AT K=   2, I=   5, J=   5

 MAXIMUM STEPSIZE WHICH MEETS STABILITY CRITERION OF THE ADVECTION TERM
 (FOR PURE FINITE-DIFFERENCE OPTION, MIXELM=0) 
 =  305.0    (WHEN MIN. R.F.=1)  AT K=   2, I=   5, J=   5

                    "CNH             " FLOW TERMS FOR TIME STEP 19, STRESS PERIOD  5 READ UNFORMATTED ON UNIT 10
                    --------------------------------------------------------------------------------------------

                    "WEL             " FLOW TERMS FOR TIME STEP 19, STRESS PERIOD  5 READ UNFORMATTED ON UNIT 10
                    --------------------------------------------------------------------------------------------

                    "GHB             " FLOW TERMS FOR TIME STEP 19, STRESS PERIOD  5 READ UNFORMATTED ON UNIT 10
                    --------------------------------------------------------------------------------------------


 TOTAL NUMBER OF POINT SOURCES/SINKS PRESENT IN THE FLOW MODEL =    41

 MAXIMUM STEPSIZE WHICH MEETS STABILITY CRITERION OF THE SINK & SOURCE TERM
 =  6675.    (WHEN MIN. R.F.=1)  AT K=   2, I=  10, J=   1

 MAXIMUM STEPSIZE WHICH MEETS STABILITY CRITERION OF THE DISPERSION TERM
 =  639.9    (WHEN MIN. R.F.=1)  AT K=   1, I=   5, J=   5


     1 CALLS TO GCG PACKAGE FOR TRANSPORT TIME STEP   1 IN FLOW TIME STEP  19 STRESS PERIOD   5
     2 TOTAL ITERATIONS
  MAXIMUM CONCENTRATION CHANGES FOR EACH ITERATION:
  MAX. CHANGE LAYER,ROW,COL MAX. CHANGE LAYER,ROW,COL MAX. CHANGE LAYER,ROW,COL MAX. CHANGE LAYER,ROW,COL MAX. CHANGE LAYER,ROW,COL
 ------------------------------------------------------------------------------------------------------------------------------------
   0.6287E-03 (  1,  5,  5)  0.2776E-16 (  1,  1,  7)


                                          ================================================
                                                         TIME STEP NO.  020
                                          ================================================

 FROM TIME =   320.00     TO    321.00    


                    "THKSAT          " FLOW TERMS FOR TIME STEP 20, STRESS PERIOD  5 READ UNFORMATTED ON UNIT 10
                    --------------------------------------------------------------------------------------------

                    "QXX             " FLOW TERMS FOR TIME STEP 20, STRESS PERIOD  5 READ UNFORMATTED ON UNIT 10
                    --------------------------------------------------------------------------------------------

                    "QYY             " FLOW TERMS FOR TIME STEP 20, STRESS PERIOD  5 READ UNFORMATTED ON UNIT 10
                    --------------------------------------------------------------------------------------------

                    "QZZ             " FLOW TERMS FOR TIME STEP 20, STRESS PERIOD  5 READ UNFORMATTED ON UNIT 10
                    --------------------------------------------------------------------------------------------

                    "STO             " FLOW TERMS FOR TIME STEP 20, STRESS PERIOD  5 READ UNFORMATTED ON UNIT 10
                    --------------------------------------------------------------------------------------------

 MAXIMUM STEPSIZE DURING WHICH ANY PARTICLE CANNOT MOVE MORE THAN ONE CELL
 =  989.0    (WHEN MIN. R.F.=1)  AT K=   2, I=   5, J=   5

 MAXIMUM STEPSIZE WHICH MEETS STABILITY CRITERION OF THE ADVECTION TERM
 (FOR PURE FINITE-DIFFERENCE OPTION, MIXELM=0) 
 =  300.6    (WHEN MIN. R.F.=1)  AT K=   2, I=   5, J=   5

                    "CNH             " FLOW TERMS FOR TIME STEP 20, STRESS PERIOD  5 READ UNFORMATTED ON UNIT 10
                    --------------------------------------------------------------------------------------------

                    "WEL             " FLOW TERMS FOR TIME STEP 20, STRESS PERIOD  5 READ UNFORMATTED ON UNIT 10
                    --------------------------------------------------------------------------------------------

                    "GHB             " FLOW TERMS FOR TIME STEP 20, STRESS PERIOD  5 READ UNFORMATTED ON UNIT 10
                    --------------------------------------------------------------------------------------------


 TOTAL NUMBER OF POINT SOURCES/SINKS PRESENT IN THE FLOW MODEL =    41

 MAXIMUM STEPSIZE WHICH MEETS STABILITY CRITERION OF THE SINK & SOURCE TERM
 =  6654.    (WHEN MIN. R.F.=1)  AT K=   2, I=  10, J=   1

 MAXIMUM STEPSIZE WHICH MEETS STABILITY CRITERION OF THE DISPERSION TERM
 =  627.4    (WHEN MIN. R.F.=1)  AT K=   1, I=   5, J=   5


     1 CALLS TO GCG PACKAGE FOR TRANSPORT TIME STEP   1 IN FLOW TIME STEP  20 STRESS PERIOD   5
     2 TOTAL ITERATIONS
  MAXIMUM CONCENTRATION CHANGES FOR EACH ITERATION:
  MAX. CHANGE LAYER,ROW,COL MAX. CHANGE LAYER,ROW,COL MAX. CHANGE LAYER,ROW,COL MAX. CHANGE LAYER,ROW,COL MAX. CHANGE LAYER,ROW,COL
 ------------------------------------------------------------------------------------------------------------------------------------
   0.6405E-03 (  1,  5,  5)  0.2776E-16 (  1,  1,  7)


                                          ================================================
                                                         TIME STEP NO.  021
                                          ================================================

 FROM TIME =   321.00     TO    322.00    


                    "THKSAT          " FLOW TERMS FOR TIME STEP 21, STRESS PERIOD  5 READ UNFORMATTED ON UNIT 10
                    --------------------------------------------------------------------------------------------

                    "QXX             " FLOW TERMS FOR TIME STEP 21, STRESS PERIOD  5 READ UNFORMATTED ON UNIT 10
                    --------------------------------------------------------------------------------------------

                    "QYY             " FLOW TERMS FOR TIME STEP 21, STRESS PERIOD  5 READ UNFORMATTED ON UNIT 10
                    --------------------------------------------------------------------------------------------

                    "QZZ             " FLOW TERMS FOR TIME STEP 21, STRESS PERIOD  5 READ UNFORMATTED ON UNIT 10
                    --------------------------------------------------------------------------------------------

                    "STO             " FLOW TERMS FOR TIME STEP 21, STRESS PERIOD  5 READ UNFORMATTED ON UNIT 10
                    --------------------------------------------------------------------------------------------

 MAXIMUM STEPSIZE DURING WHICH ANY PARTICLE CANNOT MOVE MORE THAN ONE CELL
 =  975.6    (WHEN MIN. R.F.=1)  AT K=   2, I=   5, J=   5

 MAXIMUM STEPSIZE WHICH MEETS STABILITY CRITERION OF THE ADVECTION TERM
 (FOR PURE FINITE-DIFFERENCE OPTION, MIXELM=0) 
 =  296.7    (WHEN MIN. R.F.=1)  AT K=   2, I=   5, J=   5

                    "CNH             " FLOW TERMS FOR TIME STEP 21, STRESS PERIOD  5 READ UNFORMATTED ON UNIT 10
                    --------------------------------------------------------------------------------------------

                    "WEL             " FLOW TERMS FOR TIME STEP 21, STRESS PERIOD  5 READ UNFORMATTED ON UNIT 10
                    --------------------------------------------------------------------------------------------

                    "GHB             " FLOW TERMS FOR TIME STEP 21, STRESS PERIOD  5 READ UNFORMATTED ON UNIT 10
                    --------------------------------------------------------------------------------------------


 TOTAL NUMBER OF POINT SOURCES/SINKS PRESENT IN THE FLOW MODEL =    41

 MAXIMUM STEPSIZE WHICH MEETS STABILITY CRITERION OF THE SINK & SOURCE TERM
 =  6631.    (WHEN MIN. R.F.=1)  AT K=   2, I=  10, J=   1

 MAXIMUM STEPSIZE WHICH MEETS STABILITY CRITERION OF THE DISPERSION TERM
 =  616.3    (WHEN MIN. R.F.=1)  AT K=   1, I=   5, J=   5


     1 CALLS TO GCG PACKAGE FOR TRANSPORT TIME STEP   1 IN FLOW TIME STEP  21 STRESS PERIOD   5
     2 TOTAL ITERATIONS
  MAXIMUM CONCENTRATION CHANGES FOR EACH ITERATION:
  MAX. CHANGE LAYER,ROW,COL MAX. CHANGE LAYER,ROW,COL MAX. CHANGE LAYER,ROW,COL MAX. CHANGE LAYER,ROW,COL MAX. CHANGE LAYER,ROW,COL
 ------------------------------------------------------------------------------------------------------------------------------------
   0.6512E-03 (  1,  5,  5)  0.2776E-16 (  1,  1,  7)


                                          ================================================
                                                         TIME STEP NO.  022
                                          ================================================

 FROM TIME =   322.00     TO    323.00    


                    "THKSAT          " FLOW TERMS FOR TIME STEP 22, STRESS PERIOD  5 READ UNFORMATTED ON UNIT 10
                    --------------------------------------------------------------------------------------------

                    "QXX             " FLOW TERMS FOR TIME STEP 22, STRESS PERIOD  5 READ UNFORMATTED ON UNIT 10
                    --------------------------------------------------------------------------------------------

                    "QYY             " FLOW TERMS FOR TIME STEP 22, STRESS PERIOD  5 READ UNFORMATTED ON UNIT 10
                    --------------------------------------------------------------------------------------------

                    "QZZ             " FLOW TERMS FOR TIME STEP 22, STRESS PERIOD  5 READ UNFORMATTED ON UNIT 10
                    --------------------------------------------------------------------------------------------

                    "STO             " FLOW TERMS FOR TIME STEP 22, STRESS PERIOD  5 READ UNFORMATTED ON UNIT 10
                    --------------------------------------------------------------------------------------------

 MAXIMUM STEPSIZE DURING WHICH ANY PARTICLE CANNOT MOVE MORE THAN ONE CELL
 =  963.5    (WHEN MIN. R.F.=1)  AT K=   2, I=   5, J=   5

 MAXIMUM STEPSIZE WHICH MEETS STABILITY CRITERION OF THE ADVECTION TERM
 (FOR PURE FINITE-DIFFERENCE OPTION, MIXELM=0) 
 =  293.2    (WHEN MIN. R.F.=1)  AT K=   2, I=   5, J=   5

                    "CNH             " FLOW TERMS FOR TIME STEP 22, STRESS PERIOD  5 READ UNFORMATTED ON UNIT 10
                    --------------------------------------------------------------------------------------------

                    "WEL             " FLOW TERMS FOR TIME STEP 22, STRESS PERIOD  5 READ UNFORMATTED ON UNIT 10
                    --------------------------------------------------------------------------------------------

                    "GHB             " FLOW TERMS FOR TIME STEP 22, STRESS PERIOD  5 READ UNFORMATTED ON UNIT 10
                    --------------------------------------------------------------------------------------------


 TOTAL NUMBER OF POINT SOURCES/SINKS PRESENT IN THE FLOW MODEL =    41

 MAXIMUM STEPSIZE WHICH MEETS STABILITY CRITERION OF THE SINK & SOURCE TERM
 =  6609.    (WHEN MIN. R.F.=1)  AT K=   2, I=  10, J=   1

 MAXIMUM STEPSIZE WHICH MEETS STABILITY CRITERION OF THE DISPERSION TERM
 =  606.3    (WHEN MIN. R.F.=1)  AT K=   1, I=   5, J=   5


     1 CALLS TO GCG PACKAGE FOR TRANSPORT TIME STEP   1 IN FLOW TIME STEP  22 STRESS PERIOD   5
     2 TOTAL ITERATIONS
  MAXIMUM CONCENTRATION CHANGES FOR EACH ITERATION:
  MAX. CHANGE LAYER,ROW,COL MAX. CHANGE LAYER,ROW,COL MAX. CHANGE LAYER,ROW,COL MAX. CHANGE LAYER,ROW,COL MAX. CHANGE LAYER,ROW,COL
 ------------------------------------------------------------------------------------------------------------------------------------
   0.6611E-03 (  1,  5,  5)  0.2776E-16 (  1,  1,  7)


                                          ================================================
                                                         TIME STEP NO.  023
                                          ================================================

 FROM TIME =   323.00     TO    324.00    


                    "THKSAT          " FLOW TERMS FOR TIME STEP 23, STRESS PERIOD  5 READ UNFORMATTED ON UNIT 10
                    --------------------------------------------------------------------------------------------

                    "QXX             " FLOW TERMS FOR TIME STEP 23, STRESS PERIOD  5 READ UNFORMATTED ON UNIT 10
                    --------------------------------------------------------------------------------------------

                    "QYY             " FLOW TERMS FOR TIME STEP 23, STRESS PERIOD  5 READ UNFORMATTED ON UNIT 10
                    --------------------------------------------------------------------------------------------

                    "QZZ             " FLOW TERMS FOR TIME STEP 23, STRESS PERIOD  5 READ UNFORMATTED ON UNIT 10
                    --------------------------------------------------------------------------------------------

                    "STO             " FLOW TERMS FOR TIME STEP 23, STRESS PERIOD  5 READ UNFORMATTED ON UNIT 10
                    --------------------------------------------------------------------------------------------

 MAXIMUM STEPSIZE DURING WHICH ANY PARTICLE CANNOT MOVE MORE THAN ONE CELL
 =  952.7    (WHEN MIN. R.F.=1)  AT K=   2, I=   5, J=   5

 MAXIMUM STEPSIZE WHICH MEETS STABILITY CRITERION OF THE ADVECTION TERM
 (FOR PURE FINITE-DIFFERENCE OPTION, MIXELM=0) 
 =  290.1    (WHEN MIN. R.F.=1)  AT K=   2, I=   5, J=   5

                    "CNH             " FLOW TERMS FOR TIME STEP 23, STRESS PERIOD  5 READ UNFORMATTED ON UNIT 10
                    --------------------------------------------------------------------------------------------

                    "WEL             " FLOW TERMS FOR TIME STEP 23, STRESS PERIOD  5 READ UNFORMATTED ON UNIT 10
                    --------------------------------------------------------------------------------------------

                    "GHB             " FLOW TERMS FOR TIME STEP 23, STRESS PERIOD  5 READ UNFORMATTED ON UNIT 10
                    --------------------------------------------------------------------------------------------


 TOTAL NUMBER OF POINT SOURCES/SINKS PRESENT IN THE FLOW MODEL =    41

 MAXIMUM STEPSIZE WHICH MEETS STABILITY CRITERION OF THE SINK & SOURCE TERM
 =  6586.    (WHEN MIN. R.F.=1)  AT K=   2, I=  10, J=   1

 MAXIMUM STEPSIZE WHICH MEETS STABILITY CRITERION OF THE DISPERSION TERM
 =  597.3    (WHEN MIN. R.F.=1)  AT K=   1, I=   5, J=   5


     1 CALLS TO GCG PACKAGE FOR TRANSPORT TIME STEP   1 IN FLOW TIME STEP  23 STRESS PERIOD   5
     2 TOTAL ITERATIONS
  MAXIMUM CONCENTRATION CHANGES FOR EACH ITERATION:
  MAX. CHANGE LAYER,ROW,COL MAX. CHANGE LAYER,ROW,COL MAX. CHANGE LAYER,ROW,COL MAX. CHANGE LAYER,ROW,COL MAX. CHANGE LAYER,ROW,COL
 ------------------------------------------------------------------------------------------------------------------------------------
   0.6705E-03 (  1,  5,  5)  0.2776E-16 (  1,  1,  7)


                                          ================================================
                                                         TIME STEP NO.  024
                                          ================================================

 FROM TIME =   324.00     TO    325.00    


                    "THKSAT          " FLOW TERMS FOR TIME STEP 24, STRESS PERIOD  5 READ UNFORMATTED ON UNIT 10
                    --------------------------------------------------------------------------------------------

                    "QXX             " FLOW TERMS FOR TIME STEP 24, STRESS PERIOD  5 READ UNFORMATTED ON UNIT 10
                    --------------------------------------------------------------------------------------------

                    "QYY             " FLOW TERMS FOR TIME STEP 24, STRESS PERIOD  5 READ UNFORMATTED ON UNIT 10
                    --------------------------------------------------------------------------------------------

                    "QZZ             " FLOW TERMS FOR TIME STEP 24, STRESS PERIOD  5 READ UNFORMATTED ON UNIT 10
                    --------------------------------------------------------------------------------------------

                    "STO             " FLOW TERMS FOR TIME STEP 24, STRESS PERIOD  5 READ UNFORMATTED ON UNIT 10
                    --------------------------------------------------------------------------------------------

 MAXIMUM STEPSIZE DURING WHICH ANY PARTICLE CANNOT MOVE MORE THAN ONE CELL
 =  942.9    (WHEN MIN. R.F.=1)  AT K=   2, I=   5, J=   5

 MAXIMUM STEPSIZE WHICH MEETS STABILITY CRITERION OF THE ADVECTION TERM
 (FOR PURE FINITE-DIFFERENCE OPTION, MIXELM=0) 
 =  287.2    (WHEN MIN. R.F.=1)  AT K=   2, I=   5, J=   5

                    "CNH             " FLOW TERMS FOR TIME STEP 24, STRESS PERIOD  5 READ UNFORMATTED ON UNIT 10
                    --------------------------------------------------------------------------------------------

                    "WEL             " FLOW TERMS FOR TIME STEP 24, STRESS PERIOD  5 READ UNFORMATTED ON UNIT 10
                    --------------------------------------------------------------------------------------------

                    "GHB             " FLOW TERMS FOR TIME STEP 24, STRESS PERIOD  5 READ UNFORMATTED ON UNIT 10
                    --------------------------------------------------------------------------------------------


 TOTAL NUMBER OF POINT SOURCES/SINKS PRESENT IN THE FLOW MODEL =    41

 MAXIMUM STEPSIZE WHICH MEETS STABILITY CRITERION OF THE SINK & SOURCE TERM
 =  6563.    (WHEN MIN. R.F.=1)  AT K=   2, I=  10, J=   1

 MAXIMUM STEPSIZE WHICH MEETS STABILITY CRITERION OF THE DISPERSION TERM
 =  589.1    (WHEN MIN. R.F.=1)  AT K=   1, I=   5, J=   5


     1 CALLS TO GCG PACKAGE FOR TRANSPORT TIME STEP   1 IN FLOW TIME STEP  24 STRESS PERIOD   5
     2 TOTAL ITERATIONS
  MAXIMUM CONCENTRATION CHANGES FOR EACH ITERATION:
  MAX. CHANGE LAYER,ROW,COL MAX. CHANGE LAYER,ROW,COL MAX. CHANGE LAYER,ROW,COL MAX. CHANGE LAYER,ROW,COL MAX. CHANGE LAYER,ROW,COL
 ------------------------------------------------------------------------------------------------------------------------------------
   0.6794E-03 (  1,  5,  5)  0.2776E-16 (  1,  1,  7)


                                          ================================================
                                                         TIME STEP NO.  025
                                          ================================================

 FROM TIME =   325.00     TO    326.00    


                    "THKSAT          " FLOW TERMS FOR TIME STEP 25, STRESS PERIOD  5 READ UNFORMATTED ON UNIT 10
                    --------------------------------------------------------------------------------------------

                    "QXX             " FLOW TERMS FOR TIME STEP 25, STRESS PERIOD  5 READ UNFORMATTED ON UNIT 10
                    --------------------------------------------------------------------------------------------

                    "QYY             " FLOW TERMS FOR TIME STEP 25, STRESS PERIOD  5 READ UNFORMATTED ON UNIT 10
                    --------------------------------------------------------------------------------------------

                    "QZZ             " FLOW TERMS FOR TIME STEP 25, STRESS PERIOD  5 READ UNFORMATTED ON UNIT 10
                    --------------------------------------------------------------------------------------------

                    "STO             " FLOW TERMS FOR TIME STEP 25, STRESS PERIOD  5 READ UNFORMATTED ON UNIT 10
                    --------------------------------------------------------------------------------------------

 MAXIMUM STEPSIZE DURING WHICH ANY PARTICLE CANNOT MOVE MORE THAN ONE CELL
 =  933.9    (WHEN MIN. R.F.=1)  AT K=   2, I=   5, J=   5

 MAXIMUM STEPSIZE WHICH MEETS STABILITY CRITERION OF THE ADVECTION TERM
 (FOR PURE FINITE-DIFFERENCE OPTION, MIXELM=0) 
 =  284.6    (WHEN MIN. R.F.=1)  AT K=   2, I=   5, J=   5

                    "CNH             " FLOW TERMS FOR TIME STEP 25, STRESS PERIOD  5 READ UNFORMATTED ON UNIT 10
                    --------------------------------------------------------------------------------------------

                    "WEL             " FLOW TERMS FOR TIME STEP 25, STRESS PERIOD  5 READ UNFORMATTED ON UNIT 10
                    --------------------------------------------------------------------------------------------

                    "GHB             " FLOW TERMS FOR TIME STEP 25, STRESS PERIOD  5 READ UNFORMATTED ON UNIT 10
                    --------------------------------------------------------------------------------------------


 TOTAL NUMBER OF POINT SOURCES/SINKS PRESENT IN THE FLOW MODEL =    41

 MAXIMUM STEPSIZE WHICH MEETS STABILITY CRITERION OF THE SINK & SOURCE TERM
 =  6538.    (WHEN MIN. R.F.=1)  AT K=   2, I=  10, J=   1

 MAXIMUM STEPSIZE WHICH MEETS STABILITY CRITERION OF THE DISPERSION TERM
 =  581.6    (WHEN MIN. R.F.=1)  AT K=   1, I=   5, J=   5


     1 CALLS TO GCG PACKAGE FOR TRANSPORT TIME STEP   1 IN FLOW TIME STEP  25 STRESS PERIOD   5
     2 TOTAL ITERATIONS
  MAXIMUM CONCENTRATION CHANGES FOR EACH ITERATION:
  MAX. CHANGE LAYER,ROW,COL MAX. CHANGE LAYER,ROW,COL MAX. CHANGE LAYER,ROW,COL MAX. CHANGE LAYER,ROW,COL MAX. CHANGE LAYER,ROW,COL
 ------------------------------------------------------------------------------------------------------------------------------------
   0.6875E-03 (  1,  5,  5)  0.2776E-16 (  1,  1,  7)


                                          ================================================
                                                         TIME STEP NO.  026
                                          ================================================

 FROM TIME =   326.00     TO    327.00    


                    "THKSAT          " FLOW TERMS FOR TIME STEP 26, STRESS PERIOD  5 READ UNFORMATTED ON UNIT 10
                    --------------------------------------------------------------------------------------------

                    "QXX             " FLOW TERMS FOR TIME STEP 26, STRESS PERIOD  5 READ UNFORMATTED ON UNIT 10
                    --------------------------------------------------------------------------------------------

                    "QYY             " FLOW TERMS FOR TIME STEP 26, STRESS PERIOD  5 READ UNFORMATTED ON UNIT 10
                    --------------------------------------------------------------------------------------------

                    "QZZ             " FLOW TERMS FOR TIME STEP 26, STRESS PERIOD  5 READ UNFORMATTED ON UNIT 10
                    --------------------------------------------------------------------------------------------

                    "STO             " FLOW TERMS FOR TIME STEP 26, STRESS PERIOD  5 READ UNFORMATTED ON UNIT 10
                    --------------------------------------------------------------------------------------------

 MAXIMUM STEPSIZE DURING WHICH ANY PARTICLE CANNOT MOVE MORE THAN ONE CELL
 =  925.7    (WHEN MIN. R.F.=1)  AT K=   2, I=   5, J=   5

 MAXIMUM STEPSIZE WHICH MEETS STABILITY CRITERION OF THE ADVECTION TERM
 (FOR PURE FINITE-DIFFERENCE OPTION, MIXELM=0) 
 =  282.2    (WHEN MIN. R.F.=1)  AT K=   2, I=   5, J=   5

                    "CNH             " FLOW TERMS FOR TIME STEP 26, STRESS PERIOD  5 READ UNFORMATTED ON UNIT 10
                    --------------------------------------------------------------------------------------------

                    "WEL             " FLOW TERMS FOR TIME STEP 26, STRESS PERIOD  5 READ UNFORMATTED ON UNIT 10
                    --------------------------------------------------------------------------------------------

                    "GHB             " FLOW TERMS FOR TIME STEP 26, STRESS PERIOD  5 READ UNFORMATTED ON UNIT 10
                    --------------------------------------------------------------------------------------------


 TOTAL NUMBER OF POINT SOURCES/SINKS PRESENT IN THE FLOW MODEL =    41

 MAXIMUM STEPSIZE WHICH MEETS STABILITY CRITERION OF THE SINK & SOURCE TERM
 =  6514.    (WHEN MIN. R.F.=1)  AT K=   2, I=  10, J=   1

 MAXIMUM STEPSIZE WHICH MEETS STABILITY CRITERION OF THE DISPERSION TERM
 =  574.7    (WHEN MIN. R.F.=1)  AT K=   1, I=   5, J=   5


     1 CALLS TO GCG PACKAGE FOR TRANSPORT TIME STEP   1 IN FLOW TIME STEP  26 STRESS PERIOD   5
     2 TOTAL ITERATIONS
  MAXIMUM CONCENTRATION CHANGES FOR EACH ITERATION:
  MAX. CHANGE LAYER,ROW,COL MAX. CHANGE LAYER,ROW,COL MAX. CHANGE LAYER,ROW,COL MAX. CHANGE LAYER,ROW,COL MAX. CHANGE LAYER,ROW,COL
 ------------------------------------------------------------------------------------------------------------------------------------
   0.6950E-03 (  1,  5,  5)  0.2776E-16 (  1,  1,  7)


                                          ================================================
                                                         TIME STEP NO.  027
                                          ================================================

 FROM TIME =   327.00     TO    328.00    


                    "THKSAT          " FLOW TERMS FOR TIME STEP 27, STRESS PERIOD  5 READ UNFORMATTED ON UNIT 10
                    --------------------------------------------------------------------------------------------

                    "QXX             " FLOW TERMS FOR TIME STEP 27, STRESS PERIOD  5 READ UNFORMATTED ON UNIT 10
                    --------------------------------------------------------------------------------------------

                    "QYY             " FLOW TERMS FOR TIME STEP 27, STRESS PERIOD  5 READ UNFORMATTED ON UNIT 10
                    --------------------------------------------------------------------------------------------

                    "QZZ             " FLOW TERMS FOR TIME STEP 27, STRESS PERIOD  5 READ UNFORMATTED ON UNIT 10
                    --------------------------------------------------------------------------------------------

                    "STO             " FLOW TERMS FOR TIME STEP 27, STRESS PERIOD  5 READ UNFORMATTED ON UNIT 10
                    --------------------------------------------------------------------------------------------

 MAXIMUM STEPSIZE DURING WHICH ANY PARTICLE CANNOT MOVE MORE THAN ONE CELL
 =  918.2    (WHEN MIN. R.F.=1)  AT K=   2, I=   5, J=   5

 MAXIMUM STEPSIZE WHICH MEETS STABILITY CRITERION OF THE ADVECTION TERM
 (FOR PURE FINITE-DIFFERENCE OPTION, MIXELM=0) 
 =  280.0    (WHEN MIN. R.F.=1)  AT K=   2, I=   5, J=   5

                    "CNH             " FLOW TERMS FOR TIME STEP 27, STRESS PERIOD  5 READ UNFORMATTED ON UNIT 10
                    --------------------------------------------------------------------------------------------

                    "WEL             " FLOW TERMS FOR TIME STEP 27, STRESS PERIOD  5 READ UNFORMATTED ON UNIT 10
                    --------------------------------------------------------------------------------------------

                    "GHB             " FLOW TERMS FOR TIME STEP 27, STRESS PERIOD  5 READ UNFORMATTED ON UNIT 10
                    --------------------------------------------------------------------------------------------


 TOTAL NUMBER OF POINT SOURCES/SINKS PRESENT IN THE FLOW MODEL =    41

 MAXIMUM STEPSIZE WHICH MEETS STABILITY CRITERION OF THE SINK & SOURCE TERM
 =  6490.    (WHEN MIN. R.F.=1)  AT K=   2, I=  10, J=   1

 MAXIMUM STEPSIZE WHICH MEETS STABILITY CRITERION OF THE DISPERSION TERM
 =  568.4    (WHEN MIN. R.F.=1)  AT K=   1, I=   5, J=   5


     1 CALLS TO GCG PACKAGE FOR TRANSPORT TIME STEP   1 IN FLOW TIME STEP  27 STRESS PERIOD   5
     2 TOTAL ITERATIONS
  MAXIMUM CONCENTRATION CHANGES FOR EACH ITERATION:
  MAX. CHANGE LAYER,ROW,COL MAX. CHANGE LAYER,ROW,COL MAX. CHANGE LAYER,ROW,COL MAX. CHANGE LAYER,ROW,COL MAX. CHANGE LAYER,ROW,COL
 ------------------------------------------------------------------------------------------------------------------------------------
   0.7021E-03 (  1,  5,  5)  0.2776E-16 (  1,  1,  7)


                                          ================================================
                                                         TIME STEP NO.  028
                                          ================================================

 FROM TIME =   328.00     TO    329.00    


                    "THKSAT          " FLOW TERMS FOR TIME STEP 28, STRESS PERIOD  5 READ UNFORMATTED ON UNIT 10
                    --------------------------------------------------------------------------------------------

                    "QXX             " FLOW TERMS FOR TIME STEP 28, STRESS PERIOD  5 READ UNFORMATTED ON UNIT 10
                    --------------------------------------------------------------------------------------------

                    "QYY             " FLOW TERMS FOR TIME STEP 28, STRESS PERIOD  5 READ UNFORMATTED ON UNIT 10
                    --------------------------------------------------------------------------------------------

                    "QZZ             " FLOW TERMS FOR TIME STEP 28, STRESS PERIOD  5 READ UNFORMATTED ON UNIT 10
                    --------------------------------------------------------------------------------------------

                    "STO             " FLOW TERMS FOR TIME STEP 28, STRESS PERIOD  5 READ UNFORMATTED ON UNIT 10
                    --------------------------------------------------------------------------------------------

 MAXIMUM STEPSIZE DURING WHICH ANY PARTICLE CANNOT MOVE MORE THAN ONE CELL
 =  911.2    (WHEN MIN. R.F.=1)  AT K=   2, I=   5, J=   5

 MAXIMUM STEPSIZE WHICH MEETS STABILITY CRITERION OF THE ADVECTION TERM
 (FOR PURE FINITE-DIFFERENCE OPTION, MIXELM=0) 
 =  278.0    (WHEN MIN. R.F.=1)  AT K=   2, I=   5, J=   5

                    "CNH             " FLOW TERMS FOR TIME STEP 28, STRESS PERIOD  5 READ UNFORMATTED ON UNIT 10
                    --------------------------------------------------------------------------------------------

                    "WEL             " FLOW TERMS FOR TIME STEP 28, STRESS PERIOD  5 READ UNFORMATTED ON UNIT 10
                    --------------------------------------------------------------------------------------------

                    "GHB             " FLOW TERMS FOR TIME STEP 28, STRESS PERIOD  5 READ UNFORMATTED ON UNIT 10
                    --------------------------------------------------------------------------------------------


 TOTAL NUMBER OF POINT SOURCES/SINKS PRESENT IN THE FLOW MODEL =    41

 MAXIMUM STEPSIZE WHICH MEETS STABILITY CRITERION OF THE SINK & SOURCE TERM
 =  6465.    (WHEN MIN. R.F.=1)  AT K=   2, I=  10, J=   1

 MAXIMUM STEPSIZE WHICH MEETS STABILITY CRITERION OF THE DISPERSION TERM
 =  562.5    (WHEN MIN. R.F.=1)  AT K=   1, I=   5, J=   5


     1 CALLS TO GCG PACKAGE FOR TRANSPORT TIME STEP   1 IN FLOW TIME STEP  28 STRESS PERIOD   5
     2 TOTAL ITERATIONS
  MAXIMUM CONCENTRATION CHANGES FOR EACH ITERATION:
  MAX. CHANGE LAYER,ROW,COL MAX. CHANGE LAYER,ROW,COL MAX. CHANGE LAYER,ROW,COL MAX. CHANGE LAYER,ROW,COL MAX. CHANGE LAYER,ROW,COL
 ------------------------------------------------------------------------------------------------------------------------------------
   0.7088E-03 (  1,  5,  5)  0.2776E-16 (  1,  1,  7)


                                          ================================================
                                                         TIME STEP NO.  029
                                          ================================================

 FROM TIME =   329.00     TO    330.00    


                    "THKSAT          " FLOW TERMS FOR TIME STEP 29, STRESS PERIOD  5 READ UNFORMATTED ON UNIT 10
                    --------------------------------------------------------------------------------------------

                    "QXX             " FLOW TERMS FOR TIME STEP 29, STRESS PERIOD  5 READ UNFORMATTED ON UNIT 10
                    --------------------------------------------------------------------------------------------

                    "QYY             " FLOW TERMS FOR TIME STEP 29, STRESS PERIOD  5 READ UNFORMATTED ON UNIT 10
                    --------------------------------------------------------------------------------------------

                    "QZZ             " FLOW TERMS FOR TIME STEP 29, STRESS PERIOD  5 READ UNFORMATTED ON UNIT 10
                    --------------------------------------------------------------------------------------------

                    "STO             " FLOW TERMS FOR TIME STEP 29, STRESS PERIOD  5 READ UNFORMATTED ON UNIT 10
                    --------------------------------------------------------------------------------------------

 MAXIMUM STEPSIZE DURING WHICH ANY PARTICLE CANNOT MOVE MORE THAN ONE CELL
 =  904.8    (WHEN MIN. R.F.=1)  AT K=   2, I=   5, J=   5

 MAXIMUM STEPSIZE WHICH MEETS STABILITY CRITERION OF THE ADVECTION TERM
 (FOR PURE FINITE-DIFFERENCE OPTION, MIXELM=0) 
 =  276.1    (WHEN MIN. R.F.=1)  AT K=   2, I=   5, J=   5

                    "CNH             " FLOW TERMS FOR TIME STEP 29, STRESS PERIOD  5 READ UNFORMATTED ON UNIT 10
                    --------------------------------------------------------------------------------------------

                    "WEL             " FLOW TERMS FOR TIME STEP 29, STRESS PERIOD  5 READ UNFORMATTED ON UNIT 10
                    --------------------------------------------------------------------------------------------

                    "GHB             " FLOW TERMS FOR TIME STEP 29, STRESS PERIOD  5 READ UNFORMATTED ON UNIT 10
                    --------------------------------------------------------------------------------------------


 TOTAL NUMBER OF POINT SOURCES/SINKS PRESENT IN THE FLOW MODEL =    41

 MAXIMUM STEPSIZE WHICH MEETS STABILITY CRITERION OF THE SINK & SOURCE TERM
 =  6440.    (WHEN MIN. R.F.=1)  AT K=   2, I=  10, J=   1

 MAXIMUM STEPSIZE WHICH MEETS STABILITY CRITERION OF THE DISPERSION TERM
 =  557.0    (WHEN MIN. R.F.=1)  AT K=   1, I=   5, J=   5


     1 CALLS TO GCG PACKAGE FOR TRANSPORT TIME STEP   1 IN FLOW TIME STEP  29 STRESS PERIOD   5
     2 TOTAL ITERATIONS
  MAXIMUM CONCENTRATION CHANGES FOR EACH ITERATION:
  MAX. CHANGE LAYER,ROW,COL MAX. CHANGE LAYER,ROW,COL MAX. CHANGE LAYER,ROW,COL MAX. CHANGE LAYER,ROW,COL MAX. CHANGE LAYER,ROW,COL
 ------------------------------------------------------------------------------------------------------------------------------------
   0.7111E-03 (  1,  5,  5)  0.2776E-16 (  1,  1,  7)


                                          ================================================
                                                         TIME STEP NO.  030
                                          ================================================

 FROM TIME =   330.00     TO    331.00    


                    "THKSAT          " FLOW TERMS FOR TIME STEP 30, STRESS PERIOD  5 READ UNFORMATTED ON UNIT 10
                    --------------------------------------------------------------------------------------------

                    "QXX             " FLOW TERMS FOR TIME STEP 30, STRESS PERIOD  5 READ UNFORMATTED ON UNIT 10
                    --------------------------------------------------------------------------------------------

                    "QYY             " FLOW TERMS FOR TIME STEP 30, STRESS PERIOD  5 READ UNFORMATTED ON UNIT 10
                    --------------------------------------------------------------------------------------------

                    "QZZ             " FLOW TERMS FOR TIME STEP 30, STRESS PERIOD  5 READ UNFORMATTED ON UNIT 10
                    --------------------------------------------------------------------------------------------

                    "STO             " FLOW TERMS FOR TIME STEP 30, STRESS PERIOD  5 READ UNFORMATTED ON UNIT 10
                    --------------------------------------------------------------------------------------------

 MAXIMUM STEPSIZE DURING WHICH ANY PARTICLE CANNOT MOVE MORE THAN ONE CELL
 =  898.8    (WHEN MIN. R.F.=1)  AT K=   2, I=   5, J=   5

 MAXIMUM STEPSIZE WHICH MEETS STABILITY CRITERION OF THE ADVECTION TERM
 (FOR PURE FINITE-DIFFERENCE OPTION, MIXELM=0) 
 =  274.3    (WHEN MIN. R.F.=1)  AT K=   2, I=   5, J=   5

                    "CNH             " FLOW TERMS FOR TIME STEP 30, STRESS PERIOD  5 READ UNFORMATTED ON UNIT 10
                    --------------------------------------------------------------------------------------------

                    "WEL             " FLOW TERMS FOR TIME STEP 30, STRESS PERIOD  5 READ UNFORMATTED ON UNIT 10
                    --------------------------------------------------------------------------------------------

                    "GHB             " FLOW TERMS FOR TIME STEP 30, STRESS PERIOD  5 READ UNFORMATTED ON UNIT 10
                    --------------------------------------------------------------------------------------------


 TOTAL NUMBER OF POINT SOURCES/SINKS PRESENT IN THE FLOW MODEL =    41

 MAXIMUM STEPSIZE WHICH MEETS STABILITY CRITERION OF THE SINK & SOURCE TERM
 =  6415.    (WHEN MIN. R.F.=1)  AT K=   2, I=  10, J=   1

 MAXIMUM STEPSIZE WHICH MEETS STABILITY CRITERION OF THE DISPERSION TERM
 =  552.0    (WHEN MIN. R.F.=1)  AT K=   1, I=   5, J=   5


     1 CALLS TO GCG PACKAGE FOR TRANSPORT TIME STEP   1 IN FLOW TIME STEP  30 STRESS PERIOD   5
     2 TOTAL ITERATIONS
  MAXIMUM CONCENTRATION CHANGES FOR EACH ITERATION:
  MAX. CHANGE LAYER,ROW,COL MAX. CHANGE LAYER,ROW,COL MAX. CHANGE LAYER,ROW,COL MAX. CHANGE LAYER,ROW,COL MAX. CHANGE LAYER,ROW,COL
 ------------------------------------------------------------------------------------------------------------------------------------
   0.7168E-03 (  1,  5,  5)  0.1735E-17 (  1,  1,  8)


                                          ================================================
                                                         TIME STEP NO.  031
                                          ================================================

 FROM TIME =   331.00     TO    332.00    


                    "THKSAT          " FLOW TERMS FOR TIME STEP 31, STRESS PERIOD  5 READ UNFORMATTED ON UNIT 10
                    --------------------------------------------------------------------------------------------

                    "QXX             " FLOW TERMS FOR TIME STEP 31, STRESS PERIOD  5 READ UNFORMATTED ON UNIT 10
                    --------------------------------------------------------------------------------------------

                    "QYY             " FLOW TERMS FOR TIME STEP 31, STRESS PERIOD  5 READ UNFORMATTED ON UNIT 10
                    --------------------------------------------------------------------------------------------

                    "QZZ             " FLOW TERMS FOR TIME STEP 31, STRESS PERIOD  5 READ UNFORMATTED ON UNIT 10
                    --------------------------------------------------------------------------------------------

                    "STO             " FLOW TERMS FOR TIME STEP 31, STRESS PERIOD  5 READ UNFORMATTED ON UNIT 10
                    --------------------------------------------------------------------------------------------

 MAXIMUM STEPSIZE DURING WHICH ANY PARTICLE CANNOT MOVE MORE THAN ONE CELL
 =  893.3    (WHEN MIN. R.F.=1)  AT K=   2, I=   5, J=   5

 MAXIMUM STEPSIZE WHICH MEETS STABILITY CRITERION OF THE ADVECTION TERM
 (FOR PURE FINITE-DIFFERENCE OPTION, MIXELM=0) 
 =  272.7    (WHEN MIN. R.F.=1)  AT K=   2, I=   5, J=   5

                    "CNH             " FLOW TERMS FOR TIME STEP 31, STRESS PERIOD  5 READ UNFORMATTED ON UNIT 10
                    --------------------------------------------------------------------------------------------

                    "WEL             " FLOW TERMS FOR TIME STEP 31, STRESS PERIOD  5 READ UNFORMATTED ON UNIT 10
                    --------------------------------------------------------------------------------------------

                    "GHB             " FLOW TERMS FOR TIME STEP 31, STRESS PERIOD  5 READ UNFORMATTED ON UNIT 10
                    --------------------------------------------------------------------------------------------


 TOTAL NUMBER OF POINT SOURCES/SINKS PRESENT IN THE FLOW MODEL =    41

 MAXIMUM STEPSIZE WHICH MEETS STABILITY CRITERION OF THE SINK & SOURCE TERM
 =  6389.    (WHEN MIN. R.F.=1)  AT K=   2, I=  10, J=   1

 MAXIMUM STEPSIZE WHICH MEETS STABILITY CRITERION OF THE DISPERSION TERM
 =  547.2    (WHEN MIN. R.F.=1)  AT K=   1, I=   5, J=   5


     1 CALLS TO GCG PACKAGE FOR TRANSPORT TIME STEP   1 IN FLOW TIME STEP  31 STRESS PERIOD   5
     2 TOTAL ITERATIONS
  MAXIMUM CONCENTRATION CHANGES FOR EACH ITERATION:
  MAX. CHANGE LAYER,ROW,COL MAX. CHANGE LAYER,ROW,COL MAX. CHANGE LAYER,ROW,COL MAX. CHANGE LAYER,ROW,COL MAX. CHANGE LAYER,ROW,COL
 ------------------------------------------------------------------------------------------------------------------------------------
   0.7225E-03 (  1,  5,  5)  0.1735E-17 (  1,  1,  8)


                                          ================================================
                                                         TIME STEP NO.  032
                                          ================================================

 FROM TIME =   332.00     TO    333.00    


                    "THKSAT          " FLOW TERMS FOR TIME STEP 32, STRESS PERIOD  5 READ UNFORMATTED ON UNIT 10
                    --------------------------------------------------------------------------------------------

                    "QXX             " FLOW TERMS FOR TIME STEP 32, STRESS PERIOD  5 READ UNFORMATTED ON UNIT 10
                    --------------------------------------------------------------------------------------------

                    "QYY             " FLOW TERMS FOR TIME STEP 32, STRESS PERIOD  5 READ UNFORMATTED ON UNIT 10
                    --------------------------------------------------------------------------------------------

                    "QZZ             " FLOW TERMS FOR TIME STEP 32, STRESS PERIOD  5 READ UNFORMATTED ON UNIT 10
                    --------------------------------------------------------------------------------------------

                    "STO             " FLOW TERMS FOR TIME STEP 32, STRESS PERIOD  5 READ UNFORMATTED ON UNIT 10
                    --------------------------------------------------------------------------------------------

 MAXIMUM STEPSIZE DURING WHICH ANY PARTICLE CANNOT MOVE MORE THAN ONE CELL
 =  888.1    (WHEN MIN. R.F.=1)  AT K=   2, I=   5, J=   5

 MAXIMUM STEPSIZE WHICH MEETS STABILITY CRITERION OF THE ADVECTION TERM
 (FOR PURE FINITE-DIFFERENCE OPTION, MIXELM=0) 
 =  271.2    (WHEN MIN. R.F.=1)  AT K=   2, I=   5, J=   5

                    "CNH             " FLOW TERMS FOR TIME STEP 32, STRESS PERIOD  5 READ UNFORMATTED ON UNIT 10
                    --------------------------------------------------------------------------------------------

                    "WEL             " FLOW TERMS FOR TIME STEP 32, STRESS PERIOD  5 READ UNFORMATTED ON UNIT 10
                    --------------------------------------------------------------------------------------------

                    "GHB             " FLOW TERMS FOR TIME STEP 32, STRESS PERIOD  5 READ UNFORMATTED ON UNIT 10
                    --------------------------------------------------------------------------------------------


 TOTAL NUMBER OF POINT SOURCES/SINKS PRESENT IN THE FLOW MODEL =    41

 MAXIMUM STEPSIZE WHICH MEETS STABILITY CRITERION OF THE SINK & SOURCE TERM
 =  6363.    (WHEN MIN. R.F.=1)  AT K=   2, I=  10, J=   1

 MAXIMUM STEPSIZE WHICH MEETS STABILITY CRITERION OF THE DISPERSION TERM
 =  542.8    (WHEN MIN. R.F.=1)  AT K=   1, I=   5, J=   5


     1 CALLS TO GCG PACKAGE FOR TRANSPORT TIME STEP   1 IN FLOW TIME STEP  32 STRESS PERIOD   5
     2 TOTAL ITERATIONS
  MAXIMUM CONCENTRATION CHANGES FOR EACH ITERATION:
  MAX. CHANGE LAYER,ROW,COL MAX. CHANGE LAYER,ROW,COL MAX. CHANGE LAYER,ROW,COL MAX. CHANGE LAYER,ROW,COL MAX. CHANGE LAYER,ROW,COL
 ------------------------------------------------------------------------------------------------------------------------------------
   0.7278E-03 (  1,  5,  5)  0.1735E-17 (  1,  1,  8)


                                          ================================================
                                                         TIME STEP NO.  033
                                          ================================================

 FROM TIME =   333.00     TO    334.00    


                    "THKSAT          " FLOW TERMS FOR TIME STEP 33, STRESS PERIOD  5 READ UNFORMATTED ON UNIT 10
                    --------------------------------------------------------------------------------------------

                    "QXX             " FLOW TERMS FOR TIME STEP 33, STRESS PERIOD  5 READ UNFORMATTED ON UNIT 10
                    --------------------------------------------------------------------------------------------

                    "QYY             " FLOW TERMS FOR TIME STEP 33, STRESS PERIOD  5 READ UNFORMATTED ON UNIT 10
                    --------------------------------------------------------------------------------------------

                    "QZZ             " FLOW TERMS FOR TIME STEP 33, STRESS PERIOD  5 READ UNFORMATTED ON UNIT 10
                    --------------------------------------------------------------------------------------------

                    "STO             " FLOW TERMS FOR TIME STEP 33, STRESS PERIOD  5 READ UNFORMATTED ON UNIT 10
                    --------------------------------------------------------------------------------------------

 MAXIMUM STEPSIZE DURING WHICH ANY PARTICLE CANNOT MOVE MORE THAN ONE CELL
 =  883.2    (WHEN MIN. R.F.=1)  AT K=   2, I=   5, J=   5

 MAXIMUM STEPSIZE WHICH MEETS STABILITY CRITERION OF THE ADVECTION TERM
 (FOR PURE FINITE-DIFFERENCE OPTION, MIXELM=0) 
 =  269.7    (WHEN MIN. R.F.=1)  AT K=   2, I=   5, J=   5

                    "CNH             " FLOW TERMS FOR TIME STEP 33, STRESS PERIOD  5 READ UNFORMATTED ON UNIT 10
                    --------------------------------------------------------------------------------------------

                    "WEL             " FLOW TERMS FOR TIME STEP 33, STRESS PERIOD  5 READ UNFORMATTED ON UNIT 10
                    --------------------------------------------------------------------------------------------

                    "GHB             " FLOW TERMS FOR TIME STEP 33, STRESS PERIOD  5 READ UNFORMATTED ON UNIT 10
                    --------------------------------------------------------------------------------------------


 TOTAL NUMBER OF POINT SOURCES/SINKS PRESENT IN THE FLOW MODEL =    41

 MAXIMUM STEPSIZE WHICH MEETS STABILITY CRITERION OF THE SINK & SOURCE TERM
 =  6336.    (WHEN MIN. R.F.=1)  AT K=   2, I=  10, J=   1

 MAXIMUM STEPSIZE WHICH MEETS STABILITY CRITERION OF THE DISPERSION TERM
 =  538.6    (WHEN MIN. R.F.=1)  AT K=   1, I=   5, J=   5


     1 CALLS TO GCG PACKAGE FOR TRANSPORT TIME STEP   1 IN FLOW TIME STEP  33 STRESS PERIOD   5
     2 TOTAL ITERATIONS
  MAXIMUM CONCENTRATION CHANGES FOR EACH ITERATION:
  MAX. CHANGE LAYER,ROW,COL MAX. CHANGE LAYER,ROW,COL MAX. CHANGE LAYER,ROW,COL MAX. CHANGE LAYER,ROW,COL MAX. CHANGE LAYER,ROW,COL
 ------------------------------------------------------------------------------------------------------------------------------------
   0.7329E-03 (  1,  5,  5)  0.1735E-17 (  1,  1,  8)


                                          ================================================
                                                         TIME STEP NO.  034
                                          ================================================

 FROM TIME =   334.00     TO    335.00    


                    "THKSAT          " FLOW TERMS FOR TIME STEP 34, STRESS PERIOD  5 READ UNFORMATTED ON UNIT 10
                    --------------------------------------------------------------------------------------------

                    "QXX             " FLOW TERMS FOR TIME STEP 34, STRESS PERIOD  5 READ UNFORMATTED ON UNIT 10
                    --------------------------------------------------------------------------------------------

                    "QYY             " FLOW TERMS FOR TIME STEP 34, STRESS PERIOD  5 READ UNFORMATTED ON UNIT 10
                    --------------------------------------------------------------------------------------------

                    "QZZ             " FLOW TERMS FOR TIME STEP 34, STRESS PERIOD  5 READ UNFORMATTED ON UNIT 10
                    --------------------------------------------------------------------------------------------

                    "STO             " FLOW TERMS FOR TIME STEP 34, STRESS PERIOD  5 READ UNFORMATTED ON UNIT 10
                    --------------------------------------------------------------------------------------------

 MAXIMUM STEPSIZE DURING WHICH ANY PARTICLE CANNOT MOVE MORE THAN ONE CELL
 =  878.6    (WHEN MIN. R.F.=1)  AT K=   2, I=   5, J=   5

 MAXIMUM STEPSIZE WHICH MEETS STABILITY CRITERION OF THE ADVECTION TERM
 (FOR PURE FINITE-DIFFERENCE OPTION, MIXELM=0) 
 =  268.4    (WHEN MIN. R.F.=1)  AT K=   2, I=   5, J=   5

                    "CNH             " FLOW TERMS FOR TIME STEP 34, STRESS PERIOD  5 READ UNFORMATTED ON UNIT 10
                    --------------------------------------------------------------------------------------------

                    "WEL             " FLOW TERMS FOR TIME STEP 34, STRESS PERIOD  5 READ UNFORMATTED ON UNIT 10
                    --------------------------------------------------------------------------------------------

                    "GHB             " FLOW TERMS FOR TIME STEP 34, STRESS PERIOD  5 READ UNFORMATTED ON UNIT 10
                    --------------------------------------------------------------------------------------------


 TOTAL NUMBER OF POINT SOURCES/SINKS PRESENT IN THE FLOW MODEL =    41

 MAXIMUM STEPSIZE WHICH MEETS STABILITY CRITERION OF THE SINK & SOURCE TERM
 =  6309.    (WHEN MIN. R.F.=1)  AT K=   2, I=  10, J=   1

 MAXIMUM STEPSIZE WHICH MEETS STABILITY CRITERION OF THE DISPERSION TERM
 =  534.6    (WHEN MIN. R.F.=1)  AT K=   1, I=   5, J=   5


     1 CALLS TO GCG PACKAGE FOR TRANSPORT TIME STEP   1 IN FLOW TIME STEP  34 STRESS PERIOD   5
     2 TOTAL ITERATIONS
  MAXIMUM CONCENTRATION CHANGES FOR EACH ITERATION:
  MAX. CHANGE LAYER,ROW,COL MAX. CHANGE LAYER,ROW,COL MAX. CHANGE LAYER,ROW,COL MAX. CHANGE LAYER,ROW,COL MAX. CHANGE LAYER,ROW,COL
 ------------------------------------------------------------------------------------------------------------------------------------
   0.7377E-03 (  1,  5,  5)  0.1735E-17 (  1,  1,  8)


                                          ================================================
                                                         TIME STEP NO.  035
                                          ================================================

 FROM TIME =   335.00     TO    336.00    


                    "THKSAT          " FLOW TERMS FOR TIME STEP 35, STRESS PERIOD  5 READ UNFORMATTED ON UNIT 10
                    --------------------------------------------------------------------------------------------

                    "QXX             " FLOW TERMS FOR TIME STEP 35, STRESS PERIOD  5 READ UNFORMATTED ON UNIT 10
                    --------------------------------------------------------------------------------------------

                    "QYY             " FLOW TERMS FOR TIME STEP 35, STRESS PERIOD  5 READ UNFORMATTED ON UNIT 10
                    --------------------------------------------------------------------------------------------

                    "QZZ             " FLOW TERMS FOR TIME STEP 35, STRESS PERIOD  5 READ UNFORMATTED ON UNIT 10
                    --------------------------------------------------------------------------------------------

                    "STO             " FLOW TERMS FOR TIME STEP 35, STRESS PERIOD  5 READ UNFORMATTED ON UNIT 10
                    --------------------------------------------------------------------------------------------

 MAXIMUM STEPSIZE DURING WHICH ANY PARTICLE CANNOT MOVE MORE THAN ONE CELL
 =  874.3    (WHEN MIN. R.F.=1)  AT K=   2, I=   5, J=   5

 MAXIMUM STEPSIZE WHICH MEETS STABILITY CRITERION OF THE ADVECTION TERM
 (FOR PURE FINITE-DIFFERENCE OPTION, MIXELM=0) 
 =  267.1    (WHEN MIN. R.F.=1)  AT K=   2, I=   5, J=   5

                    "CNH             " FLOW TERMS FOR TIME STEP 35, STRESS PERIOD  5 READ UNFORMATTED ON UNIT 10
                    --------------------------------------------------------------------------------------------

                    "WEL             " FLOW TERMS FOR TIME STEP 35, STRESS PERIOD  5 READ UNFORMATTED ON UNIT 10
                    --------------------------------------------------------------------------------------------

                    "GHB             " FLOW TERMS FOR TIME STEP 35, STRESS PERIOD  5 READ UNFORMATTED ON UNIT 10
                    --------------------------------------------------------------------------------------------


 TOTAL NUMBER OF POINT SOURCES/SINKS PRESENT IN THE FLOW MODEL =    41

 MAXIMUM STEPSIZE WHICH MEETS STABILITY CRITERION OF THE SINK & SOURCE TERM
 =  6282.    (WHEN MIN. R.F.=1)  AT K=   2, I=  10, J=   1

 MAXIMUM STEPSIZE WHICH MEETS STABILITY CRITERION OF THE DISPERSION TERM
 =  530.9    (WHEN MIN. R.F.=1)  AT K=   1, I=   5, J=   5


     1 CALLS TO GCG PACKAGE FOR TRANSPORT TIME STEP   1 IN FLOW TIME STEP  35 STRESS PERIOD   5
     2 TOTAL ITERATIONS
  MAXIMUM CONCENTRATION CHANGES FOR EACH ITERATION:
  MAX. CHANGE LAYER,ROW,COL MAX. CHANGE LAYER,ROW,COL MAX. CHANGE LAYER,ROW,COL MAX. CHANGE LAYER,ROW,COL MAX. CHANGE LAYER,ROW,COL
 ------------------------------------------------------------------------------------------------------------------------------------
   0.7420E-03 (  1,  5,  5)  0.1735E-17 (  1,  1,  8)


                                          ================================================
                                                         TIME STEP NO.  036
                                          ================================================

 FROM TIME =   336.00     TO    337.00    


                    "THKSAT          " FLOW TERMS FOR TIME STEP 36, STRESS PERIOD  5 READ UNFORMATTED ON UNIT 10
                    --------------------------------------------------------------------------------------------

                    "QXX             " FLOW TERMS FOR TIME STEP 36, STRESS PERIOD  5 READ UNFORMATTED ON UNIT 10
                    --------------------------------------------------------------------------------------------

                    "QYY             " FLOW TERMS FOR TIME STEP 36, STRESS PERIOD  5 READ UNFORMATTED ON UNIT 10
                    --------------------------------------------------------------------------------------------

                    "QZZ             " FLOW TERMS FOR TIME STEP 36, STRESS PERIOD  5 READ UNFORMATTED ON UNIT 10
                    --------------------------------------------------------------------------------------------

                    "STO             " FLOW TERMS FOR TIME STEP 36, STRESS PERIOD  5 READ UNFORMATTED ON UNIT 10
                    --------------------------------------------------------------------------------------------

 MAXIMUM STEPSIZE DURING WHICH ANY PARTICLE CANNOT MOVE MORE THAN ONE CELL
 =  870.2    (WHEN MIN. R.F.=1)  AT K=   2, I=   5, J=   5

 MAXIMUM STEPSIZE WHICH MEETS STABILITY CRITERION OF THE ADVECTION TERM
 (FOR PURE FINITE-DIFFERENCE OPTION, MIXELM=0) 
 =  265.9    (WHEN MIN. R.F.=1)  AT K=   2, I=   5, J=   5

                    "CNH             " FLOW TERMS FOR TIME STEP 36, STRESS PERIOD  5 READ UNFORMATTED ON UNIT 10
                    --------------------------------------------------------------------------------------------

                    "WEL             " FLOW TERMS FOR TIME STEP 36, STRESS PERIOD  5 READ UNFORMATTED ON UNIT 10
                    --------------------------------------------------------------------------------------------

                    "GHB             " FLOW TERMS FOR TIME STEP 36, STRESS PERIOD  5 READ UNFORMATTED ON UNIT 10
                    --------------------------------------------------------------------------------------------


 TOTAL NUMBER OF POINT SOURCES/SINKS PRESENT IN THE FLOW MODEL =    41

 MAXIMUM STEPSIZE WHICH MEETS STABILITY CRITERION OF THE SINK & SOURCE TERM
 =  6254.    (WHEN MIN. R.F.=1)  AT K=   2, I=  10, J=   1

 MAXIMUM STEPSIZE WHICH MEETS STABILITY CRITERION OF THE DISPERSION TERM
 =  527.4    (WHEN MIN. R.F.=1)  AT K=   1, I=   5, J=   5


     1 CALLS TO GCG PACKAGE FOR TRANSPORT TIME STEP   1 IN FLOW TIME STEP  36 STRESS PERIOD   5
     2 TOTAL ITERATIONS
  MAXIMUM CONCENTRATION CHANGES FOR EACH ITERATION:
  MAX. CHANGE LAYER,ROW,COL MAX. CHANGE LAYER,ROW,COL MAX. CHANGE LAYER,ROW,COL MAX. CHANGE LAYER,ROW,COL MAX. CHANGE LAYER,ROW,COL
 ------------------------------------------------------------------------------------------------------------------------------------
   0.7466E-03 (  1,  5,  5)  0.1735E-17 (  1,  1,  8)


                                          ================================================
                                                         TIME STEP NO.  037
                                          ================================================

 FROM TIME =   337.00     TO    338.00    


                    "THKSAT          " FLOW TERMS FOR TIME STEP 37, STRESS PERIOD  5 READ UNFORMATTED ON UNIT 10
                    --------------------------------------------------------------------------------------------

                    "QXX             " FLOW TERMS FOR TIME STEP 37, STRESS PERIOD  5 READ UNFORMATTED ON UNIT 10
                    --------------------------------------------------------------------------------------------

                    "QYY             " FLOW TERMS FOR TIME STEP 37, STRESS PERIOD  5 READ UNFORMATTED ON UNIT 10
                    --------------------------------------------------------------------------------------------

                    "QZZ             " FLOW TERMS FOR TIME STEP 37, STRESS PERIOD  5 READ UNFORMATTED ON UNIT 10
                    --------------------------------------------------------------------------------------------

                    "STO             " FLOW TERMS FOR TIME STEP 37, STRESS PERIOD  5 READ UNFORMATTED ON UNIT 10
                    --------------------------------------------------------------------------------------------

 MAXIMUM STEPSIZE DURING WHICH ANY PARTICLE CANNOT MOVE MORE THAN ONE CELL
 =  866.4    (WHEN MIN. R.F.=1)  AT K=   2, I=   5, J=   5

 MAXIMUM STEPSIZE WHICH MEETS STABILITY CRITERION OF THE ADVECTION TERM
 (FOR PURE FINITE-DIFFERENCE OPTION, MIXELM=0) 
 =  264.8    (WHEN MIN. R.F.=1)  AT K=   2, I=   5, J=   5

                    "CNH             " FLOW TERMS FOR TIME STEP 37, STRESS PERIOD  5 READ UNFORMATTED ON UNIT 10
                    --------------------------------------------------------------------------------------------

                    "WEL             " FLOW TERMS FOR TIME STEP 37, STRESS PERIOD  5 READ UNFORMATTED ON UNIT 10
                    --------------------------------------------------------------------------------------------

                    "GHB             " FLOW TERMS FOR TIME STEP 37, STRESS PERIOD  5 READ UNFORMATTED ON UNIT 10
                    --------------------------------------------------------------------------------------------


 TOTAL NUMBER OF POINT SOURCES/SINKS PRESENT IN THE FLOW MODEL =    41

 MAXIMUM STEPSIZE WHICH MEETS STABILITY CRITERION OF THE SINK & SOURCE TERM
 =  6226.    (WHEN MIN. R.F.=1)  AT K=   2, I=  10, J=   1

 MAXIMUM STEPSIZE WHICH MEETS STABILITY CRITERION OF THE DISPERSION TERM
 =  524.0    (WHEN MIN. R.F.=1)  AT K=   1, I=   5, J=   5


     1 CALLS TO GCG PACKAGE FOR TRANSPORT TIME STEP   1 IN FLOW TIME STEP  37 STRESS PERIOD   5
     2 TOTAL ITERATIONS
  MAXIMUM CONCENTRATION CHANGES FOR EACH ITERATION:
  MAX. CHANGE LAYER,ROW,COL MAX. CHANGE LAYER,ROW,COL MAX. CHANGE LAYER,ROW,COL MAX. CHANGE LAYER,ROW,COL MAX. CHANGE LAYER,ROW,COL
 ------------------------------------------------------------------------------------------------------------------------------------
   0.7504E-03 (  1,  5,  5)  0.4441E-15 (  2,  5,  2)


                                          ================================================
                                                         TIME STEP NO.  038
                                          ================================================

 FROM TIME =   338.00     TO    339.00    


                    "THKSAT          " FLOW TERMS FOR TIME STEP 38, STRESS PERIOD  5 READ UNFORMATTED ON UNIT 10
                    --------------------------------------------------------------------------------------------

                    "QXX             " FLOW TERMS FOR TIME STEP 38, STRESS PERIOD  5 READ UNFORMATTED ON UNIT 10
                    --------------------------------------------------------------------------------------------

                    "QYY             " FLOW TERMS FOR TIME STEP 38, STRESS PERIOD  5 READ UNFORMATTED ON UNIT 10
                    --------------------------------------------------------------------------------------------

                    "QZZ             " FLOW TERMS FOR TIME STEP 38, STRESS PERIOD  5 READ UNFORMATTED ON UNIT 10
                    --------------------------------------------------------------------------------------------

                    "STO             " FLOW TERMS FOR TIME STEP 38, STRESS PERIOD  5 READ UNFORMATTED ON UNIT 10
                    --------------------------------------------------------------------------------------------

 MAXIMUM STEPSIZE DURING WHICH ANY PARTICLE CANNOT MOVE MORE THAN ONE CELL
 =  862.7    (WHEN MIN. R.F.=1)  AT K=   2, I=   5, J=   5

 MAXIMUM STEPSIZE WHICH MEETS STABILITY CRITERION OF THE ADVECTION TERM
 (FOR PURE FINITE-DIFFERENCE OPTION, MIXELM=0) 
 =  263.7    (WHEN MIN. R.F.=1)  AT K=   2, I=   5, J=   5

                    "CNH             " FLOW TERMS FOR TIME STEP 38, STRESS PERIOD  5 READ UNFORMATTED ON UNIT 10
                    --------------------------------------------------------------------------------------------

                    "WEL             " FLOW TERMS FOR TIME STEP 38, STRESS PERIOD  5 READ UNFORMATTED ON UNIT 10
                    --------------------------------------------------------------------------------------------

                    "GHB             " FLOW TERMS FOR TIME STEP 38, STRESS PERIOD  5 READ UNFORMATTED ON UNIT 10
                    --------------------------------------------------------------------------------------------


 TOTAL NUMBER OF POINT SOURCES/SINKS PRESENT IN THE FLOW MODEL =    41

 MAXIMUM STEPSIZE WHICH MEETS STABILITY CRITERION OF THE SINK & SOURCE TERM
 =  6198.    (WHEN MIN. R.F.=1)  AT K=   2, I=  10, J=   1

 MAXIMUM STEPSIZE WHICH MEETS STABILITY CRITERION OF THE DISPERSION TERM
 =  520.8    (WHEN MIN. R.F.=1)  AT K=   1, I=   5, J=   5


     1 CALLS TO GCG PACKAGE FOR TRANSPORT TIME STEP   1 IN FLOW TIME STEP  38 STRESS PERIOD   5
     2 TOTAL ITERATIONS
  MAXIMUM CONCENTRATION CHANGES FOR EACH ITERATION:
  MAX. CHANGE LAYER,ROW,COL MAX. CHANGE LAYER,ROW,COL MAX. CHANGE LAYER,ROW,COL MAX. CHANGE LAYER,ROW,COL MAX. CHANGE LAYER,ROW,COL
 ------------------------------------------------------------------------------------------------------------------------------------
   0.7547E-03 (  1,  5,  5)  0.4441E-15 (  2,  5,  2)


                                          ================================================
                                                         TIME STEP NO.  039
                                          ================================================

 FROM TIME =   339.00     TO    340.00    


                    "THKSAT          " FLOW TERMS FOR TIME STEP 39, STRESS PERIOD  5 READ UNFORMATTED ON UNIT 10
                    --------------------------------------------------------------------------------------------

                    "QXX             " FLOW TERMS FOR TIME STEP 39, STRESS PERIOD  5 READ UNFORMATTED ON UNIT 10
                    --------------------------------------------------------------------------------------------

                    "QYY             " FLOW TERMS FOR TIME STEP 39, STRESS PERIOD  5 READ UNFORMATTED ON UNIT 10
                    --------------------------------------------------------------------------------------------

                    "QZZ             " FLOW TERMS FOR TIME STEP 39, STRESS PERIOD  5 READ UNFORMATTED ON UNIT 10
                    --------------------------------------------------------------------------------------------

                    "STO             " FLOW TERMS FOR TIME STEP 39, STRESS PERIOD  5 READ UNFORMATTED ON UNIT 10
                    --------------------------------------------------------------------------------------------

 MAXIMUM STEPSIZE DURING WHICH ANY PARTICLE CANNOT MOVE MORE THAN ONE CELL
 =  859.2    (WHEN MIN. R.F.=1)  AT K=   2, I=   5, J=   5

 MAXIMUM STEPSIZE WHICH MEETS STABILITY CRITERION OF THE ADVECTION TERM
 (FOR PURE FINITE-DIFFERENCE OPTION, MIXELM=0) 
 =  262.7    (WHEN MIN. R.F.=1)  AT K=   2, I=   5, J=   5

                    "CNH             " FLOW TERMS FOR TIME STEP 39, STRESS PERIOD  5 READ UNFORMATTED ON UNIT 10
                    --------------------------------------------------------------------------------------------

                    "WEL             " FLOW TERMS FOR TIME STEP 39, STRESS PERIOD  5 READ UNFORMATTED ON UNIT 10
                    --------------------------------------------------------------------------------------------

                    "GHB             " FLOW TERMS FOR TIME STEP 39, STRESS PERIOD  5 READ UNFORMATTED ON UNIT 10
                    --------------------------------------------------------------------------------------------


 TOTAL NUMBER OF POINT SOURCES/SINKS PRESENT IN THE FLOW MODEL =    41

 MAXIMUM STEPSIZE WHICH MEETS STABILITY CRITERION OF THE SINK & SOURCE TERM
 =  6167.    (WHEN MIN. R.F.=1)  AT K=   2, I=  10, J=   1

 MAXIMUM STEPSIZE WHICH MEETS STABILITY CRITERION OF THE DISPERSION TERM
 =  517.8    (WHEN MIN. R.F.=1)  AT K=   1, I=   5, J=   5


     1 CALLS TO GCG PACKAGE FOR TRANSPORT TIME STEP   1 IN FLOW TIME STEP  39 STRESS PERIOD   5
     2 TOTAL ITERATIONS
  MAXIMUM CONCENTRATION CHANGES FOR EACH ITERATION:
  MAX. CHANGE LAYER,ROW,COL MAX. CHANGE LAYER,ROW,COL MAX. CHANGE LAYER,ROW,COL MAX. CHANGE LAYER,ROW,COL MAX. CHANGE LAYER,ROW,COL
 ------------------------------------------------------------------------------------------------------------------------------------
   0.7586E-03 (  1,  5,  5)  0.4441E-15 (  2,  5,  2)


                                          ================================================
                                                         TIME STEP NO.  040
                                          ================================================

 FROM TIME =   340.00     TO    341.00    


                    "THKSAT          " FLOW TERMS FOR TIME STEP 40, STRESS PERIOD  5 READ UNFORMATTED ON UNIT 10
                    --------------------------------------------------------------------------------------------

                    "QXX             " FLOW TERMS FOR TIME STEP 40, STRESS PERIOD  5 READ UNFORMATTED ON UNIT 10
                    --------------------------------------------------------------------------------------------

                    "QYY             " FLOW TERMS FOR TIME STEP 40, STRESS PERIOD  5 READ UNFORMATTED ON UNIT 10
                    --------------------------------------------------------------------------------------------

                    "QZZ             " FLOW TERMS FOR TIME STEP 40, STRESS PERIOD  5 READ UNFORMATTED ON UNIT 10
                    --------------------------------------------------------------------------------------------

                    "STO             " FLOW TERMS FOR TIME STEP 40, STRESS PERIOD  5 READ UNFORMATTED ON UNIT 10
                    --------------------------------------------------------------------------------------------

 MAXIMUM STEPSIZE DURING WHICH ANY PARTICLE CANNOT MOVE MORE THAN ONE CELL
 =  856.0    (WHEN MIN. R.F.=1)  AT K=   2, I=   5, J=   5

 MAXIMUM STEPSIZE WHICH MEETS STABILITY CRITERION OF THE ADVECTION TERM
 (FOR PURE FINITE-DIFFERENCE OPTION, MIXELM=0) 
 =  261.7    (WHEN MIN. R.F.=1)  AT K=   2, I=   5, J=   5

                    "CNH             " FLOW TERMS FOR TIME STEP 40, STRESS PERIOD  5 READ UNFORMATTED ON UNIT 10
                    --------------------------------------------------------------------------------------------

                    "WEL             " FLOW TERMS FOR TIME STEP 40, STRESS PERIOD  5 READ UNFORMATTED ON UNIT 10
                    --------------------------------------------------------------------------------------------

                    "GHB             " FLOW TERMS FOR TIME STEP 40, STRESS PERIOD  5 READ UNFORMATTED ON UNIT 10
                    --------------------------------------------------------------------------------------------


 TOTAL NUMBER OF POINT SOURCES/SINKS PRESENT IN THE FLOW MODEL =    41

 MAXIMUM STEPSIZE WHICH MEETS STABILITY CRITERION OF THE SINK & SOURCE TERM
 =  6138.    (WHEN MIN. R.F.=1)  AT K=   2, I=  10, J=   1

 MAXIMUM STEPSIZE WHICH MEETS STABILITY CRITERION OF THE DISPERSION TERM
 =  514.9    (WHEN MIN. R.F.=1)  AT K=   1, I=   5, J=   5


     1 CALLS TO GCG PACKAGE FOR TRANSPORT TIME STEP   1 IN FLOW TIME STEP  40 STRESS PERIOD   5
     2 TOTAL ITERATIONS
  MAXIMUM CONCENTRATION CHANGES FOR EACH ITERATION:
  MAX. CHANGE LAYER,ROW,COL MAX. CHANGE LAYER,ROW,COL MAX. CHANGE LAYER,ROW,COL MAX. CHANGE LAYER,ROW,COL MAX. CHANGE LAYER,ROW,COL
 ------------------------------------------------------------------------------------------------------------------------------------
   0.7620E-03 (  1,  5,  5)  0.4441E-15 (  2,  5,  2)


                                          ================================================
                                                         TIME STEP NO.  041
                                          ================================================

 FROM TIME =   341.00     TO    342.00    


                    "THKSAT          " FLOW TERMS FOR TIME STEP 41, STRESS PERIOD  5 READ UNFORMATTED ON UNIT 10
                    --------------------------------------------------------------------------------------------

                    "QXX             " FLOW TERMS FOR TIME STEP 41, STRESS PERIOD  5 READ UNFORMATTED ON UNIT 10
                    --------------------------------------------------------------------------------------------

                    "QYY             " FLOW TERMS FOR TIME STEP 41, STRESS PERIOD  5 READ UNFORMATTED ON UNIT 10
                    --------------------------------------------------------------------------------------------

                    "QZZ             " FLOW TERMS FOR TIME STEP 41, STRESS PERIOD  5 READ UNFORMATTED ON UNIT 10
                    --------------------------------------------------------------------------------------------

                    "STO             " FLOW TERMS FOR TIME STEP 41, STRESS PERIOD  5 READ UNFORMATTED ON UNIT 10
                    --------------------------------------------------------------------------------------------

 MAXIMUM STEPSIZE DURING WHICH ANY PARTICLE CANNOT MOVE MORE THAN ONE CELL
 =  852.8    (WHEN MIN. R.F.=1)  AT K=   2, I=   5, J=   5

 MAXIMUM STEPSIZE WHICH MEETS STABILITY CRITERION OF THE ADVECTION TERM
 (FOR PURE FINITE-DIFFERENCE OPTION, MIXELM=0) 
 =  260.8    (WHEN MIN. R.F.=1)  AT K=   2, I=   5, J=   5

                    "CNH             " FLOW TERMS FOR TIME STEP 41, STRESS PERIOD  5 READ UNFORMATTED ON UNIT 10
                    --------------------------------------------------------------------------------------------

                    "WEL             " FLOW TERMS FOR TIME STEP 41, STRESS PERIOD  5 READ UNFORMATTED ON UNIT 10
                    --------------------------------------------------------------------------------------------

                    "GHB             " FLOW TERMS FOR TIME STEP 41, STRESS PERIOD  5 READ UNFORMATTED ON UNIT 10
                    --------------------------------------------------------------------------------------------


 TOTAL NUMBER OF POINT SOURCES/SINKS PRESENT IN THE FLOW MODEL =    41

 MAXIMUM STEPSIZE WHICH MEETS STABILITY CRITERION OF THE SINK & SOURCE TERM
 =  6109.    (WHEN MIN. R.F.=1)  AT K=   2, I=  10, J=   1

 MAXIMUM STEPSIZE WHICH MEETS STABILITY CRITERION OF THE DISPERSION TERM
 =  512.1    (WHEN MIN. R.F.=1)  AT K=   1, I=   5, J=   5


     1 CALLS TO GCG PACKAGE FOR TRANSPORT TIME STEP   1 IN FLOW TIME STEP  41 STRESS PERIOD   5
     2 TOTAL ITERATIONS
  MAXIMUM CONCENTRATION CHANGES FOR EACH ITERATION:
  MAX. CHANGE LAYER,ROW,COL MAX. CHANGE LAYER,ROW,COL MAX. CHANGE LAYER,ROW,COL MAX. CHANGE LAYER,ROW,COL MAX. CHANGE LAYER,ROW,COL
 ------------------------------------------------------------------------------------------------------------------------------------
   0.7655E-03 (  1,  5,  5)  0.4441E-15 (  2,  5,  2)


                                          ================================================
                                                         TIME STEP NO.  042
                                          ================================================

 FROM TIME =   342.00     TO    343.00    


                    "THKSAT          " FLOW TERMS FOR TIME STEP 42, STRESS PERIOD  5 READ UNFORMATTED ON UNIT 10
                    --------------------------------------------------------------------------------------------

                    "QXX             " FLOW TERMS FOR TIME STEP 42, STRESS PERIOD  5 READ UNFORMATTED ON UNIT 10
                    --------------------------------------------------------------------------------------------

                    "QYY             " FLOW TERMS FOR TIME STEP 42, STRESS PERIOD  5 READ UNFORMATTED ON UNIT 10
                    --------------------------------------------------------------------------------------------

                    "QZZ             " FLOW TERMS FOR TIME STEP 42, STRESS PERIOD  5 READ UNFORMATTED ON UNIT 10
                    --------------------------------------------------------------------------------------------

                    "STO             " FLOW TERMS FOR TIME STEP 42, STRESS PERIOD  5 READ UNFORMATTED ON UNIT 10
                    --------------------------------------------------------------------------------------------

 MAXIMUM STEPSIZE DURING WHICH ANY PARTICLE CANNOT MOVE MORE THAN ONE CELL
 =  849.8    (WHEN MIN. R.F.=1)  AT K=   2, I=   5, J=   5

 MAXIMUM STEPSIZE WHICH MEETS STABILITY CRITERION OF THE ADVECTION TERM
 (FOR PURE FINITE-DIFFERENCE OPTION, MIXELM=0) 
 =  259.9    (WHEN MIN. R.F.=1)  AT K=   2, I=   5, J=   5

                    "CNH             " FLOW TERMS FOR TIME STEP 42, STRESS PERIOD  5 READ UNFORMATTED ON UNIT 10
                    --------------------------------------------------------------------------------------------

                    "WEL             " FLOW TERMS FOR TIME STEP 42, STRESS PERIOD  5 READ UNFORMATTED ON UNIT 10
                    --------------------------------------------------------------------------------------------

                    "GHB             " FLOW TERMS FOR TIME STEP 42, STRESS PERIOD  5 READ UNFORMATTED ON UNIT 10
                    --------------------------------------------------------------------------------------------


 TOTAL NUMBER OF POINT SOURCES/SINKS PRESENT IN THE FLOW MODEL =    41

 MAXIMUM STEPSIZE WHICH MEETS STABILITY CRITERION OF THE SINK & SOURCE TERM
 =  6079.    (WHEN MIN. R.F.=1)  AT K=   2, I=  10, J=   1

 MAXIMUM STEPSIZE WHICH MEETS STABILITY CRITERION OF THE DISPERSION TERM
 =  509.5    (WHEN MIN. R.F.=1)  AT K=   1, I=   5, J=   5


     1 CALLS TO GCG PACKAGE FOR TRANSPORT TIME STEP   1 IN FLOW TIME STEP  42 STRESS PERIOD   5
     2 TOTAL ITERATIONS
  MAXIMUM CONCENTRATION CHANGES FOR EACH ITERATION:
  MAX. CHANGE LAYER,ROW,COL MAX. CHANGE LAYER,ROW,COL MAX. CHANGE LAYER,ROW,COL MAX. CHANGE LAYER,ROW,COL MAX. CHANGE LAYER,ROW,COL
 ------------------------------------------------------------------------------------------------------------------------------------
   0.7690E-03 (  1,  5,  5)  0.4441E-15 (  2,  5,  2)


                                          ================================================
                                                         TIME STEP NO.  043
                                          ================================================

 FROM TIME =   343.00     TO    344.00    


                    "THKSAT          " FLOW TERMS FOR TIME STEP 43, STRESS PERIOD  5 READ UNFORMATTED ON UNIT 10
                    --------------------------------------------------------------------------------------------

                    "QXX             " FLOW TERMS FOR TIME STEP 43, STRESS PERIOD  5 READ UNFORMATTED ON UNIT 10
                    --------------------------------------------------------------------------------------------

                    "QYY             " FLOW TERMS FOR TIME STEP 43, STRESS PERIOD  5 READ UNFORMATTED ON UNIT 10
                    --------------------------------------------------------------------------------------------

                    "QZZ             " FLOW TERMS FOR TIME STEP 43, STRESS PERIOD  5 READ UNFORMATTED ON UNIT 10
                    --------------------------------------------------------------------------------------------

                    "STO             " FLOW TERMS FOR TIME STEP 43, STRESS PERIOD  5 READ UNFORMATTED ON UNIT 10
                    --------------------------------------------------------------------------------------------

 MAXIMUM STEPSIZE DURING WHICH ANY PARTICLE CANNOT MOVE MORE THAN ONE CELL
 =  847.0    (WHEN MIN. R.F.=1)  AT K=   2, I=   5, J=   5

 MAXIMUM STEPSIZE WHICH MEETS STABILITY CRITERION OF THE ADVECTION TERM
 (FOR PURE FINITE-DIFFERENCE OPTION, MIXELM=0) 
 =  259.1    (WHEN MIN. R.F.=1)  AT K=   2, I=   5, J=   5

                    "CNH             " FLOW TERMS FOR TIME STEP 43, STRESS PERIOD  5 READ UNFORMATTED ON UNIT 10
                    --------------------------------------------------------------------------------------------

                    "WEL             " FLOW TERMS FOR TIME STEP 43, STRESS PERIOD  5 READ UNFORMATTED ON UNIT 10
                    --------------------------------------------------------------------------------------------

                    "GHB             " FLOW TERMS FOR TIME STEP 43, STRESS PERIOD  5 READ UNFORMATTED ON UNIT 10
                    --------------------------------------------------------------------------------------------


 TOTAL NUMBER OF POINT SOURCES/SINKS PRESENT IN THE FLOW MODEL =    41

 MAXIMUM STEPSIZE WHICH MEETS STABILITY CRITERION OF THE SINK & SOURCE TERM
 =  6050.    (WHEN MIN. R.F.=1)  AT K=   2, I=  10, J=   1

 MAXIMUM STEPSIZE WHICH MEETS STABILITY CRITERION OF THE DISPERSION TERM
 =  507.0    (WHEN MIN. R.F.=1)  AT K=   1, I=   5, J=   5


     1 CALLS TO GCG PACKAGE FOR TRANSPORT TIME STEP   1 IN FLOW TIME STEP  43 STRESS PERIOD   5
     2 TOTAL ITERATIONS
  MAXIMUM CONCENTRATION CHANGES FOR EACH ITERATION:
  MAX. CHANGE LAYER,ROW,COL MAX. CHANGE LAYER,ROW,COL MAX. CHANGE LAYER,ROW,COL MAX. CHANGE LAYER,ROW,COL MAX. CHANGE LAYER,ROW,COL
 ------------------------------------------------------------------------------------------------------------------------------------
   0.7721E-03 (  1,  5,  5)  0.4441E-15 (  2,  5,  2)


                                          ================================================
                                                         TIME STEP NO.  044
                                          ================================================

 FROM TIME =   344.00     TO    345.00    


                    "THKSAT          " FLOW TERMS FOR TIME STEP 44, STRESS PERIOD  5 READ UNFORMATTED ON UNIT 10
                    --------------------------------------------------------------------------------------------

                    "QXX             " FLOW TERMS FOR TIME STEP 44, STRESS PERIOD  5 READ UNFORMATTED ON UNIT 10
                    --------------------------------------------------------------------------------------------

                    "QYY             " FLOW TERMS FOR TIME STEP 44, STRESS PERIOD  5 READ UNFORMATTED ON UNIT 10
                    --------------------------------------------------------------------------------------------

                    "QZZ             " FLOW TERMS FOR TIME STEP 44, STRESS PERIOD  5 READ UNFORMATTED ON UNIT 10
                    --------------------------------------------------------------------------------------------

                    "STO             " FLOW TERMS FOR TIME STEP 44, STRESS PERIOD  5 READ UNFORMATTED ON UNIT 10
                    --------------------------------------------------------------------------------------------

 MAXIMUM STEPSIZE DURING WHICH ANY PARTICLE CANNOT MOVE MORE THAN ONE CELL
 =  844.2    (WHEN MIN. R.F.=1)  AT K=   2, I=   5, J=   5

 MAXIMUM STEPSIZE WHICH MEETS STABILITY CRITERION OF THE ADVECTION TERM
 (FOR PURE FINITE-DIFFERENCE OPTION, MIXELM=0) 
 =  258.2    (WHEN MIN. R.F.=1)  AT K=   2, I=   5, J=   5

                    "CNH             " FLOW TERMS FOR TIME STEP 44, STRESS PERIOD  5 READ UNFORMATTED ON UNIT 10
                    --------------------------------------------------------------------------------------------

                    "WEL             " FLOW TERMS FOR TIME STEP 44, STRESS PERIOD  5 READ UNFORMATTED ON UNIT 10
                    --------------------------------------------------------------------------------------------

                    "GHB             " FLOW TERMS FOR TIME STEP 44, STRESS PERIOD  5 READ UNFORMATTED ON UNIT 10
                    --------------------------------------------------------------------------------------------


 TOTAL NUMBER OF POINT SOURCES/SINKS PRESENT IN THE FLOW MODEL =    41

 MAXIMUM STEPSIZE WHICH MEETS STABILITY CRITERION OF THE SINK & SOURCE TERM
 =  6020.    (WHEN MIN. R.F.=1)  AT K=   2, I=  10, J=   1

 MAXIMUM STEPSIZE WHICH MEETS STABILITY CRITERION OF THE DISPERSION TERM
 =  504.5    (WHEN MIN. R.F.=1)  AT K=   1, I=   5, J=   5


     1 CALLS TO GCG PACKAGE FOR TRANSPORT TIME STEP   1 IN FLOW TIME STEP  44 STRESS PERIOD   5
     2 TOTAL ITERATIONS
  MAXIMUM CONCENTRATION CHANGES FOR EACH ITERATION:
  MAX. CHANGE LAYER,ROW,COL MAX. CHANGE LAYER,ROW,COL MAX. CHANGE LAYER,ROW,COL MAX. CHANGE LAYER,ROW,COL MAX. CHANGE LAYER,ROW,COL
 ------------------------------------------------------------------------------------------------------------------------------------
   0.7752E-03 (  1,  5,  5)  0.4441E-15 (  2,  5,  2)


                                          ================================================
                                                         TIME STEP NO.  045
                                          ================================================

 FROM TIME =   345.00     TO    346.00    


                    "THKSAT          " FLOW TERMS FOR TIME STEP 45, STRESS PERIOD  5 READ UNFORMATTED ON UNIT 10
                    --------------------------------------------------------------------------------------------

                    "QXX             " FLOW TERMS FOR TIME STEP 45, STRESS PERIOD  5 READ UNFORMATTED ON UNIT 10
                    --------------------------------------------------------------------------------------------

                    "QYY             " FLOW TERMS FOR TIME STEP 45, STRESS PERIOD  5 READ UNFORMATTED ON UNIT 10
                    --------------------------------------------------------------------------------------------

                    "QZZ             " FLOW TERMS FOR TIME STEP 45, STRESS PERIOD  5 READ UNFORMATTED ON UNIT 10
                    --------------------------------------------------------------------------------------------

                    "STO             " FLOW TERMS FOR TIME STEP 45, STRESS PERIOD  5 READ UNFORMATTED ON UNIT 10
                    --------------------------------------------------------------------------------------------

 MAXIMUM STEPSIZE DURING WHICH ANY PARTICLE CANNOT MOVE MORE THAN ONE CELL
 =  841.6    (WHEN MIN. R.F.=1)  AT K=   2, I=   5, J=   5

 MAXIMUM STEPSIZE WHICH MEETS STABILITY CRITERION OF THE ADVECTION TERM
 (FOR PURE FINITE-DIFFERENCE OPTION, MIXELM=0) 
 =  257.5    (WHEN MIN. R.F.=1)  AT K=   2, I=   5, J=   5

                    "CNH             " FLOW TERMS FOR TIME STEP 45, STRESS PERIOD  5 READ UNFORMATTED ON UNIT 10
                    --------------------------------------------------------------------------------------------

                    "WEL             " FLOW TERMS FOR TIME STEP 45, STRESS PERIOD  5 READ UNFORMATTED ON UNIT 10
                    --------------------------------------------------------------------------------------------

                    "GHB             " FLOW TERMS FOR TIME STEP 45, STRESS PERIOD  5 READ UNFORMATTED ON UNIT 10
                    --------------------------------------------------------------------------------------------


 TOTAL NUMBER OF POINT SOURCES/SINKS PRESENT IN THE FLOW MODEL =    41

 MAXIMUM STEPSIZE WHICH MEETS STABILITY CRITERION OF THE SINK & SOURCE TERM
 =  5989.    (WHEN MIN. R.F.=1)  AT K=   2, I=  10, J=   1

 MAXIMUM STEPSIZE WHICH MEETS STABILITY CRITERION OF THE DISPERSION TERM
 =  502.2    (WHEN MIN. R.F.=1)  AT K=   1, I=   5, J=   5


     1 CALLS TO GCG PACKAGE FOR TRANSPORT TIME STEP   1 IN FLOW TIME STEP  45 STRESS PERIOD   5
     2 TOTAL ITERATIONS
  MAXIMUM CONCENTRATION CHANGES FOR EACH ITERATION:
  MAX. CHANGE LAYER,ROW,COL MAX. CHANGE LAYER,ROW,COL MAX. CHANGE LAYER,ROW,COL MAX. CHANGE LAYER,ROW,COL MAX. CHANGE LAYER,ROW,COL
 ------------------------------------------------------------------------------------------------------------------------------------
   0.7783E-03 (  1,  5,  5)  0.4441E-15 (  2,  5,  2)


                                          ================================================
                                                         TIME STEP NO.  046
                                          ================================================

 FROM TIME =   346.00     TO    347.00    


                    "THKSAT          " FLOW TERMS FOR TIME STEP 46, STRESS PERIOD  5 READ UNFORMATTED ON UNIT 10
                    --------------------------------------------------------------------------------------------

                    "QXX             " FLOW TERMS FOR TIME STEP 46, STRESS PERIOD  5 READ UNFORMATTED ON UNIT 10
                    --------------------------------------------------------------------------------------------

                    "QYY             " FLOW TERMS FOR TIME STEP 46, STRESS PERIOD  5 READ UNFORMATTED ON UNIT 10
                    --------------------------------------------------------------------------------------------

                    "QZZ             " FLOW TERMS FOR TIME STEP 46, STRESS PERIOD  5 READ UNFORMATTED ON UNIT 10
                    --------------------------------------------------------------------------------------------

                    "STO             " FLOW TERMS FOR TIME STEP 46, STRESS PERIOD  5 READ UNFORMATTED ON UNIT 10
                    --------------------------------------------------------------------------------------------

 MAXIMUM STEPSIZE DURING WHICH ANY PARTICLE CANNOT MOVE MORE THAN ONE CELL
 =  839.1    (WHEN MIN. R.F.=1)  AT K=   2, I=   5, J=   5

 MAXIMUM STEPSIZE WHICH MEETS STABILITY CRITERION OF THE ADVECTION TERM
 (FOR PURE FINITE-DIFFERENCE OPTION, MIXELM=0) 
 =  256.7    (WHEN MIN. R.F.=1)  AT K=   2, I=   5, J=   5

                    "CNH             " FLOW TERMS FOR TIME STEP 46, STRESS PERIOD  5 READ UNFORMATTED ON UNIT 10
                    --------------------------------------------------------------------------------------------

                    "WEL             " FLOW TERMS FOR TIME STEP 46, STRESS PERIOD  5 READ UNFORMATTED ON UNIT 10
                    --------------------------------------------------------------------------------------------

                    "GHB             " FLOW TERMS FOR TIME STEP 46, STRESS PERIOD  5 READ UNFORMATTED ON UNIT 10
                    --------------------------------------------------------------------------------------------


 TOTAL NUMBER OF POINT SOURCES/SINKS PRESENT IN THE FLOW MODEL =    41

 MAXIMUM STEPSIZE WHICH MEETS STABILITY CRITERION OF THE SINK & SOURCE TERM
 =  5959.    (WHEN MIN. R.F.=1)  AT K=   2, I=  10, J=   1

 MAXIMUM STEPSIZE WHICH MEETS STABILITY CRITERION OF THE DISPERSION TERM
 =  499.9    (WHEN MIN. R.F.=1)  AT K=   1, I=   5, J=   5


     1 CALLS TO GCG PACKAGE FOR TRANSPORT TIME STEP   1 IN FLOW TIME STEP  46 STRESS PERIOD   5
     2 TOTAL ITERATIONS
  MAXIMUM CONCENTRATION CHANGES FOR EACH ITERATION:
  MAX. CHANGE LAYER,ROW,COL MAX. CHANGE LAYER,ROW,COL MAX. CHANGE LAYER,ROW,COL MAX. CHANGE LAYER,ROW,COL MAX. CHANGE LAYER,ROW,COL
 ------------------------------------------------------------------------------------------------------------------------------------
   0.7811E-03 (  1,  5,  5)  0.4441E-15 (  2,  5,  2)


                                          ================================================
                                                         TIME STEP NO.  047
                                          ================================================

 FROM TIME =   347.00     TO    348.00    


                    "THKSAT          " FLOW TERMS FOR TIME STEP 47, STRESS PERIOD  5 READ UNFORMATTED ON UNIT 10
                    --------------------------------------------------------------------------------------------

                    "QXX             " FLOW TERMS FOR TIME STEP 47, STRESS PERIOD  5 READ UNFORMATTED ON UNIT 10
                    --------------------------------------------------------------------------------------------

                    "QYY             " FLOW TERMS FOR TIME STEP 47, STRESS PERIOD  5 READ UNFORMATTED ON UNIT 10
                    --------------------------------------------------------------------------------------------

                    "QZZ             " FLOW TERMS FOR TIME STEP 47, STRESS PERIOD  5 READ UNFORMATTED ON UNIT 10
                    --------------------------------------------------------------------------------------------

                    "STO             " FLOW TERMS FOR TIME STEP 47, STRESS PERIOD  5 READ UNFORMATTED ON UNIT 10
                    --------------------------------------------------------------------------------------------

 MAXIMUM STEPSIZE DURING WHICH ANY PARTICLE CANNOT MOVE MORE THAN ONE CELL
 =  836.7    (WHEN MIN. R.F.=1)  AT K=   2, I=   5, J=   5

 MAXIMUM STEPSIZE WHICH MEETS STABILITY CRITERION OF THE ADVECTION TERM
 (FOR PURE FINITE-DIFFERENCE OPTION, MIXELM=0) 
 =  256.0    (WHEN MIN. R.F.=1)  AT K=   2, I=   5, J=   5

                    "CNH             " FLOW TERMS FOR TIME STEP 47, STRESS PERIOD  5 READ UNFORMATTED ON UNIT 10
                    --------------------------------------------------------------------------------------------

                    "WEL             " FLOW TERMS FOR TIME STEP 47, STRESS PERIOD  5 READ UNFORMATTED ON UNIT 10
                    --------------------------------------------------------------------------------------------

                    "GHB             " FLOW TERMS FOR TIME STEP 47, STRESS PERIOD  5 READ UNFORMATTED ON UNIT 10
                    --------------------------------------------------------------------------------------------


 TOTAL NUMBER OF POINT SOURCES/SINKS PRESENT IN THE FLOW MODEL =    41

 MAXIMUM STEPSIZE WHICH MEETS STABILITY CRITERION OF THE SINK & SOURCE TERM
 =  5928.    (WHEN MIN. R.F.=1)  AT K=   2, I=  10, J=   1

 MAXIMUM STEPSIZE WHICH MEETS STABILITY CRITERION OF THE DISPERSION TERM
 =  497.8    (WHEN MIN. R.F.=1)  AT K=   1, I=   5, J=   5


     1 CALLS TO GCG PACKAGE FOR TRANSPORT TIME STEP   1 IN FLOW TIME STEP  47 STRESS PERIOD   5
     2 TOTAL ITERATIONS
  MAXIMUM CONCENTRATION CHANGES FOR EACH ITERATION:
  MAX. CHANGE LAYER,ROW,COL MAX. CHANGE LAYER,ROW,COL MAX. CHANGE LAYER,ROW,COL MAX. CHANGE LAYER,ROW,COL MAX. CHANGE LAYER,ROW,COL
 ------------------------------------------------------------------------------------------------------------------------------------
   0.7837E-03 (  1,  5,  5)  0.4441E-15 (  2,  5,  2)


                                          ================================================
                                                         TIME STEP NO.  048
                                          ================================================

 FROM TIME =   348.00     TO    349.00    


                    "THKSAT          " FLOW TERMS FOR TIME STEP 48, STRESS PERIOD  5 READ UNFORMATTED ON UNIT 10
                    --------------------------------------------------------------------------------------------

                    "QXX             " FLOW TERMS FOR TIME STEP 48, STRESS PERIOD  5 READ UNFORMATTED ON UNIT 10
                    --------------------------------------------------------------------------------------------

                    "QYY             " FLOW TERMS FOR TIME STEP 48, STRESS PERIOD  5 READ UNFORMATTED ON UNIT 10
                    --------------------------------------------------------------------------------------------

                    "QZZ             " FLOW TERMS FOR TIME STEP 48, STRESS PERIOD  5 READ UNFORMATTED ON UNIT 10
                    --------------------------------------------------------------------------------------------

                    "STO             " FLOW TERMS FOR TIME STEP 48, STRESS PERIOD  5 READ UNFORMATTED ON UNIT 10
                    --------------------------------------------------------------------------------------------

 MAXIMUM STEPSIZE DURING WHICH ANY PARTICLE CANNOT MOVE MORE THAN ONE CELL
 =  834.3    (WHEN MIN. R.F.=1)  AT K=   2, I=   5, J=   5

 MAXIMUM STEPSIZE WHICH MEETS STABILITY CRITERION OF THE ADVECTION TERM
 (FOR PURE FINITE-DIFFERENCE OPTION, MIXELM=0) 
 =  255.3    (WHEN MIN. R.F.=1)  AT K=   2, I=   5, J=   5

                    "CNH             " FLOW TERMS FOR TIME STEP 48, STRESS PERIOD  5 READ UNFORMATTED ON UNIT 10
                    --------------------------------------------------------------------------------------------

                    "WEL             " FLOW TERMS FOR TIME STEP 48, STRESS PERIOD  5 READ UNFORMATTED ON UNIT 10
                    --------------------------------------------------------------------------------------------

                    "GHB             " FLOW TERMS FOR TIME STEP 48, STRESS PERIOD  5 READ UNFORMATTED ON UNIT 10
                    --------------------------------------------------------------------------------------------


 TOTAL NUMBER OF POINT SOURCES/SINKS PRESENT IN THE FLOW MODEL =    41

 MAXIMUM STEPSIZE WHICH MEETS STABILITY CRITERION OF THE SINK & SOURCE TERM
 =  5897.    (WHEN MIN. R.F.=1)  AT K=   2, I=  10, J=   1

 MAXIMUM STEPSIZE WHICH MEETS STABILITY CRITERION OF THE DISPERSION TERM
 =  495.7    (WHEN MIN. R.F.=1)  AT K=   1, I=   5, J=   5


     1 CALLS TO GCG PACKAGE FOR TRANSPORT TIME STEP   1 IN FLOW TIME STEP  48 STRESS PERIOD   5
     2 TOTAL ITERATIONS
  MAXIMUM CONCENTRATION CHANGES FOR EACH ITERATION:
  MAX. CHANGE LAYER,ROW,COL MAX. CHANGE LAYER,ROW,COL MAX. CHANGE LAYER,ROW,COL MAX. CHANGE LAYER,ROW,COL MAX. CHANGE LAYER,ROW,COL
 ------------------------------------------------------------------------------------------------------------------------------------
   0.7864E-03 (  1,  5,  5)  0.4441E-15 (  2,  5,  2)


                                          ================================================
                                                         TIME STEP NO.  049
                                          ================================================

 FROM TIME =   349.00     TO    350.00    


                    "THKSAT          " FLOW TERMS FOR TIME STEP 49, STRESS PERIOD  5 READ UNFORMATTED ON UNIT 10
                    --------------------------------------------------------------------------------------------

                    "QXX             " FLOW TERMS FOR TIME STEP 49, STRESS PERIOD  5 READ UNFORMATTED ON UNIT 10
                    --------------------------------------------------------------------------------------------

                    "QYY             " FLOW TERMS FOR TIME STEP 49, STRESS PERIOD  5 READ UNFORMATTED ON UNIT 10
                    --------------------------------------------------------------------------------------------

                    "QZZ             " FLOW TERMS FOR TIME STEP 49, STRESS PERIOD  5 READ UNFORMATTED ON UNIT 10
                    --------------------------------------------------------------------------------------------

                    "STO             " FLOW TERMS FOR TIME STEP 49, STRESS PERIOD  5 READ UNFORMATTED ON UNIT 10
                    --------------------------------------------------------------------------------------------

 MAXIMUM STEPSIZE DURING WHICH ANY PARTICLE CANNOT MOVE MORE THAN ONE CELL
 =  832.1    (WHEN MIN. R.F.=1)  AT K=   2, I=   5, J=   5

 MAXIMUM STEPSIZE WHICH MEETS STABILITY CRITERION OF THE ADVECTION TERM
 (FOR PURE FINITE-DIFFERENCE OPTION, MIXELM=0) 
 =  254.6    (WHEN MIN. R.F.=1)  AT K=   2, I=   5, J=   5

                    "CNH             " FLOW TERMS FOR TIME STEP 49, STRESS PERIOD  5 READ UNFORMATTED ON UNIT 10
                    --------------------------------------------------------------------------------------------

                    "WEL             " FLOW TERMS FOR TIME STEP 49, STRESS PERIOD  5 READ UNFORMATTED ON UNIT 10
                    --------------------------------------------------------------------------------------------

                    "GHB             " FLOW TERMS FOR TIME STEP 49, STRESS PERIOD  5 READ UNFORMATTED ON UNIT 10
                    --------------------------------------------------------------------------------------------


 TOTAL NUMBER OF POINT SOURCES/SINKS PRESENT IN THE FLOW MODEL =    41

 MAXIMUM STEPSIZE WHICH MEETS STABILITY CRITERION OF THE SINK & SOURCE TERM
 =  5865.    (WHEN MIN. R.F.=1)  AT K=   2, I=  10, J=   1

 MAXIMUM STEPSIZE WHICH MEETS STABILITY CRITERION OF THE DISPERSION TERM
 =  493.7    (WHEN MIN. R.F.=1)  AT K=   1, I=   5, J=   5


     1 CALLS TO GCG PACKAGE FOR TRANSPORT TIME STEP   1 IN FLOW TIME STEP  49 STRESS PERIOD   5
     2 TOTAL ITERATIONS
  MAXIMUM CONCENTRATION CHANGES FOR EACH ITERATION:
  MAX. CHANGE LAYER,ROW,COL MAX. CHANGE LAYER,ROW,COL MAX. CHANGE LAYER,ROW,COL MAX. CHANGE LAYER,ROW,COL MAX. CHANGE LAYER,ROW,COL
 ------------------------------------------------------------------------------------------------------------------------------------
   0.7887E-03 (  1,  5,  5)  0.4441E-15 (  2,  5,  2)


                                          ================================================
                                                         TIME STEP NO.  050
                                          ================================================

 FROM TIME =   350.00     TO    351.00    


                    "THKSAT          " FLOW TERMS FOR TIME STEP 50, STRESS PERIOD  5 READ UNFORMATTED ON UNIT 10
                    --------------------------------------------------------------------------------------------

                    "QXX             " FLOW TERMS FOR TIME STEP 50, STRESS PERIOD  5 READ UNFORMATTED ON UNIT 10
                    --------------------------------------------------------------------------------------------

                    "QYY             " FLOW TERMS FOR TIME STEP 50, STRESS PERIOD  5 READ UNFORMATTED ON UNIT 10
                    --------------------------------------------------------------------------------------------

                    "QZZ             " FLOW TERMS FOR TIME STEP 50, STRESS PERIOD  5 READ UNFORMATTED ON UNIT 10
                    --------------------------------------------------------------------------------------------

                    "STO             " FLOW TERMS FOR TIME STEP 50, STRESS PERIOD  5 READ UNFORMATTED ON UNIT 10
                    --------------------------------------------------------------------------------------------

 MAXIMUM STEPSIZE DURING WHICH ANY PARTICLE CANNOT MOVE MORE THAN ONE CELL
 =  829.9    (WHEN MIN. R.F.=1)  AT K=   2, I=   5, J=   5

 MAXIMUM STEPSIZE WHICH MEETS STABILITY CRITERION OF THE ADVECTION TERM
 (FOR PURE FINITE-DIFFERENCE OPTION, MIXELM=0) 
 =  254.0    (WHEN MIN. R.F.=1)  AT K=   2, I=   5, J=   5

                    "CNH             " FLOW TERMS FOR TIME STEP 50, STRESS PERIOD  5 READ UNFORMATTED ON UNIT 10
                    --------------------------------------------------------------------------------------------

                    "WEL             " FLOW TERMS FOR TIME STEP 50, STRESS PERIOD  5 READ UNFORMATTED ON UNIT 10
                    --------------------------------------------------------------------------------------------

                    "GHB             " FLOW TERMS FOR TIME STEP 50, STRESS PERIOD  5 READ UNFORMATTED ON UNIT 10
                    --------------------------------------------------------------------------------------------


 TOTAL NUMBER OF POINT SOURCES/SINKS PRESENT IN THE FLOW MODEL =    41

 MAXIMUM STEPSIZE WHICH MEETS STABILITY CRITERION OF THE SINK & SOURCE TERM
 =  5834.    (WHEN MIN. R.F.=1)  AT K=   2, I=  10, J=   1

 MAXIMUM STEPSIZE WHICH MEETS STABILITY CRITERION OF THE DISPERSION TERM
 =  491.7    (WHEN MIN. R.F.=1)  AT K=   1, I=   5, J=   5


     1 CALLS TO GCG PACKAGE FOR TRANSPORT TIME STEP   1 IN FLOW TIME STEP  50 STRESS PERIOD   5
     2 TOTAL ITERATIONS
  MAXIMUM CONCENTRATION CHANGES FOR EACH ITERATION:
  MAX. CHANGE LAYER,ROW,COL MAX. CHANGE LAYER,ROW,COL MAX. CHANGE LAYER,ROW,COL MAX. CHANGE LAYER,ROW,COL MAX. CHANGE LAYER,ROW,COL
 ------------------------------------------------------------------------------------------------------------------------------------
   0.7913E-03 (  1,  5,  5)  0.4441E-15 (  2,  5,  2)


                                          ================================================
                                                         TIME STEP NO.  051
                                          ================================================

 FROM TIME =   351.00     TO    352.00    


                    "THKSAT          " FLOW TERMS FOR TIME STEP 51, STRESS PERIOD  5 READ UNFORMATTED ON UNIT 10
                    --------------------------------------------------------------------------------------------

                    "QXX             " FLOW TERMS FOR TIME STEP 51, STRESS PERIOD  5 READ UNFORMATTED ON UNIT 10
                    --------------------------------------------------------------------------------------------

                    "QYY             " FLOW TERMS FOR TIME STEP 51, STRESS PERIOD  5 READ UNFORMATTED ON UNIT 10
                    --------------------------------------------------------------------------------------------

                    "QZZ             " FLOW TERMS FOR TIME STEP 51, STRESS PERIOD  5 READ UNFORMATTED ON UNIT 10
                    --------------------------------------------------------------------------------------------

                    "STO             " FLOW TERMS FOR TIME STEP 51, STRESS PERIOD  5 READ UNFORMATTED ON UNIT 10
                    --------------------------------------------------------------------------------------------

 MAXIMUM STEPSIZE DURING WHICH ANY PARTICLE CANNOT MOVE MORE THAN ONE CELL
 =  827.8    (WHEN MIN. R.F.=1)  AT K=   2, I=   5, J=   5

 MAXIMUM STEPSIZE WHICH MEETS STABILITY CRITERION OF THE ADVECTION TERM
 (FOR PURE FINITE-DIFFERENCE OPTION, MIXELM=0) 
 =  253.4    (WHEN MIN. R.F.=1)  AT K=   2, I=   5, J=   5

                    "CNH             " FLOW TERMS FOR TIME STEP 51, STRESS PERIOD  5 READ UNFORMATTED ON UNIT 10
                    --------------------------------------------------------------------------------------------

                    "WEL             " FLOW TERMS FOR TIME STEP 51, STRESS PERIOD  5 READ UNFORMATTED ON UNIT 10
                    --------------------------------------------------------------------------------------------

                    "GHB             " FLOW TERMS FOR TIME STEP 51, STRESS PERIOD  5 READ UNFORMATTED ON UNIT 10
                    --------------------------------------------------------------------------------------------


 TOTAL NUMBER OF POINT SOURCES/SINKS PRESENT IN THE FLOW MODEL =    41

 MAXIMUM STEPSIZE WHICH MEETS STABILITY CRITERION OF THE SINK & SOURCE TERM
 =  5803.    (WHEN MIN. R.F.=1)  AT K=   2, I=  10, J=   1

 MAXIMUM STEPSIZE WHICH MEETS STABILITY CRITERION OF THE DISPERSION TERM
 =  489.8    (WHEN MIN. R.F.=1)  AT K=   1, I=   5, J=   5


     1 CALLS TO GCG PACKAGE FOR TRANSPORT TIME STEP   1 IN FLOW TIME STEP  51 STRESS PERIOD   5
     2 TOTAL ITERATIONS
  MAXIMUM CONCENTRATION CHANGES FOR EACH ITERATION:
  MAX. CHANGE LAYER,ROW,COL MAX. CHANGE LAYER,ROW,COL MAX. CHANGE LAYER,ROW,COL MAX. CHANGE LAYER,ROW,COL MAX. CHANGE LAYER,ROW,COL
 ------------------------------------------------------------------------------------------------------------------------------------
   0.7935E-03 (  1,  5,  5)  0.1776E-14 (  2,  7,  3)


                                          ================================================
                                                         TIME STEP NO.  052
                                          ================================================

 FROM TIME =   352.00     TO    353.00    


                    "THKSAT          " FLOW TERMS FOR TIME STEP 52, STRESS PERIOD  5 READ UNFORMATTED ON UNIT 10
                    --------------------------------------------------------------------------------------------

                    "QXX             " FLOW TERMS FOR TIME STEP 52, STRESS PERIOD  5 READ UNFORMATTED ON UNIT 10
                    --------------------------------------------------------------------------------------------

                    "QYY             " FLOW TERMS FOR TIME STEP 52, STRESS PERIOD  5 READ UNFORMATTED ON UNIT 10
                    --------------------------------------------------------------------------------------------

                    "QZZ             " FLOW TERMS FOR TIME STEP 52, STRESS PERIOD  5 READ UNFORMATTED ON UNIT 10
                    --------------------------------------------------------------------------------------------

                    "STO             " FLOW TERMS FOR TIME STEP 52, STRESS PERIOD  5 READ UNFORMATTED ON UNIT 10
                    --------------------------------------------------------------------------------------------

 MAXIMUM STEPSIZE DURING WHICH ANY PARTICLE CANNOT MOVE MORE THAN ONE CELL
 =  825.8    (WHEN MIN. R.F.=1)  AT K=   2, I=   5, J=   5

 MAXIMUM STEPSIZE WHICH MEETS STABILITY CRITERION OF THE ADVECTION TERM
 (FOR PURE FINITE-DIFFERENCE OPTION, MIXELM=0) 
 =  252.8    (WHEN MIN. R.F.=1)  AT K=   2, I=   5, J=   5

                    "CNH             " FLOW TERMS FOR TIME STEP 52, STRESS PERIOD  5 READ UNFORMATTED ON UNIT 10
                    --------------------------------------------------------------------------------------------

                    "WEL             " FLOW TERMS FOR TIME STEP 52, STRESS PERIOD  5 READ UNFORMATTED ON UNIT 10
                    --------------------------------------------------------------------------------------------

                    "GHB             " FLOW TERMS FOR TIME STEP 52, STRESS PERIOD  5 READ UNFORMATTED ON UNIT 10
                    --------------------------------------------------------------------------------------------


 TOTAL NUMBER OF POINT SOURCES/SINKS PRESENT IN THE FLOW MODEL =    41

 MAXIMUM STEPSIZE WHICH MEETS STABILITY CRITERION OF THE SINK & SOURCE TERM
 =  5772.    (WHEN MIN. R.F.=1)  AT K=   2, I=  10, J=   1

 MAXIMUM STEPSIZE WHICH MEETS STABILITY CRITERION OF THE DISPERSION TERM
 =  488.0    (WHEN MIN. R.F.=1)  AT K=   1, I=   5, J=   5


     1 CALLS TO GCG PACKAGE FOR TRANSPORT TIME STEP   1 IN FLOW TIME STEP  52 STRESS PERIOD   5
     2 TOTAL ITERATIONS
  MAXIMUM CONCENTRATION CHANGES FOR EACH ITERATION:
  MAX. CHANGE LAYER,ROW,COL MAX. CHANGE LAYER,ROW,COL MAX. CHANGE LAYER,ROW,COL MAX. CHANGE LAYER,ROW,COL MAX. CHANGE LAYER,ROW,COL
 ------------------------------------------------------------------------------------------------------------------------------------
   0.7958E-03 (  1,  5,  5)  0.1776E-14 (  2,  7,  3)


                                          ================================================
                                                         TIME STEP NO.  053
                                          ================================================

 FROM TIME =   353.00     TO    354.00    


                    "THKSAT          " FLOW TERMS FOR TIME STEP 53, STRESS PERIOD  5 READ UNFORMATTED ON UNIT 10
                    --------------------------------------------------------------------------------------------

                    "QXX             " FLOW TERMS FOR TIME STEP 53, STRESS PERIOD  5 READ UNFORMATTED ON UNIT 10
                    --------------------------------------------------------------------------------------------

                    "QYY             " FLOW TERMS FOR TIME STEP 53, STRESS PERIOD  5 READ UNFORMATTED ON UNIT 10
                    --------------------------------------------------------------------------------------------

                    "QZZ             " FLOW TERMS FOR TIME STEP 53, STRESS PERIOD  5 READ UNFORMATTED ON UNIT 10
                    --------------------------------------------------------------------------------------------

                    "STO             " FLOW TERMS FOR TIME STEP 53, STRESS PERIOD  5 READ UNFORMATTED ON UNIT 10
                    --------------------------------------------------------------------------------------------

 MAXIMUM STEPSIZE DURING WHICH ANY PARTICLE CANNOT MOVE MORE THAN ONE CELL
 =  823.9    (WHEN MIN. R.F.=1)  AT K=   2, I=   5, J=   5

 MAXIMUM STEPSIZE WHICH MEETS STABILITY CRITERION OF THE ADVECTION TERM
 (FOR PURE FINITE-DIFFERENCE OPTION, MIXELM=0) 
 =  252.2    (WHEN MIN. R.F.=1)  AT K=   2, I=   5, J=   5

                    "CNH             " FLOW TERMS FOR TIME STEP 53, STRESS PERIOD  5 READ UNFORMATTED ON UNIT 10
                    --------------------------------------------------------------------------------------------

                    "WEL             " FLOW TERMS FOR TIME STEP 53, STRESS PERIOD  5 READ UNFORMATTED ON UNIT 10
                    --------------------------------------------------------------------------------------------

                    "GHB             " FLOW TERMS FOR TIME STEP 53, STRESS PERIOD  5 READ UNFORMATTED ON UNIT 10
                    --------------------------------------------------------------------------------------------


 TOTAL NUMBER OF POINT SOURCES/SINKS PRESENT IN THE FLOW MODEL =    41

 MAXIMUM STEPSIZE WHICH MEETS STABILITY CRITERION OF THE SINK & SOURCE TERM
 =  5701.    (WHEN MIN. R.F.=1)  AT K=   2, I=   5, J=   1

 MAXIMUM STEPSIZE WHICH MEETS STABILITY CRITERION OF THE DISPERSION TERM
 =  486.2    (WHEN MIN. R.F.=1)  AT K=   1, I=   5, J=   5


     1 CALLS TO GCG PACKAGE FOR TRANSPORT TIME STEP   1 IN FLOW TIME STEP  53 STRESS PERIOD   5
     2 TOTAL ITERATIONS
  MAXIMUM CONCENTRATION CHANGES FOR EACH ITERATION:
  MAX. CHANGE LAYER,ROW,COL MAX. CHANGE LAYER,ROW,COL MAX. CHANGE LAYER,ROW,COL MAX. CHANGE LAYER,ROW,COL MAX. CHANGE LAYER,ROW,COL
 ------------------------------------------------------------------------------------------------------------------------------------
   0.7979E-03 (  1,  5,  5)  0.1776E-14 (  2,  7,  3)


                                          ================================================
                                                         TIME STEP NO.  054
                                          ================================================

 FROM TIME =   354.00     TO    355.00    


                    "THKSAT          " FLOW TERMS FOR TIME STEP 54, STRESS PERIOD  5 READ UNFORMATTED ON UNIT 10
                    --------------------------------------------------------------------------------------------

                    "QXX             " FLOW TERMS FOR TIME STEP 54, STRESS PERIOD  5 READ UNFORMATTED ON UNIT 10
                    --------------------------------------------------------------------------------------------

                    "QYY             " FLOW TERMS FOR TIME STEP 54, STRESS PERIOD  5 READ UNFORMATTED ON UNIT 10
                    --------------------------------------------------------------------------------------------

                    "QZZ             " FLOW TERMS FOR TIME STEP 54, STRESS PERIOD  5 READ UNFORMATTED ON UNIT 10
                    --------------------------------------------------------------------------------------------

                    "STO             " FLOW TERMS FOR TIME STEP 54, STRESS PERIOD  5 READ UNFORMATTED ON UNIT 10
                    --------------------------------------------------------------------------------------------

 MAXIMUM STEPSIZE DURING WHICH ANY PARTICLE CANNOT MOVE MORE THAN ONE CELL
 =  822.0    (WHEN MIN. R.F.=1)  AT K=   2, I=   5, J=   5

 MAXIMUM STEPSIZE WHICH MEETS STABILITY CRITERION OF THE ADVECTION TERM
 (FOR PURE FINITE-DIFFERENCE OPTION, MIXELM=0) 
 =  251.6    (WHEN MIN. R.F.=1)  AT K=   2, I=   5, J=   5

                    "CNH             " FLOW TERMS FOR TIME STEP 54, STRESS PERIOD  5 READ UNFORMATTED ON UNIT 10
                    --------------------------------------------------------------------------------------------

                    "WEL             " FLOW TERMS FOR TIME STEP 54, STRESS PERIOD  5 READ UNFORMATTED ON UNIT 10
                    --------------------------------------------------------------------------------------------

                    "GHB             " FLOW TERMS FOR TIME STEP 54, STRESS PERIOD  5 READ UNFORMATTED ON UNIT 10
                    --------------------------------------------------------------------------------------------


 TOTAL NUMBER OF POINT SOURCES/SINKS PRESENT IN THE FLOW MODEL =    41

 MAXIMUM STEPSIZE WHICH MEETS STABILITY CRITERION OF THE SINK & SOURCE TERM
 =  5595.    (WHEN MIN. R.F.=1)  AT K=   2, I=   5, J=   1

 MAXIMUM STEPSIZE WHICH MEETS STABILITY CRITERION OF THE DISPERSION TERM
 =  484.5    (WHEN MIN. R.F.=1)  AT K=   1, I=   5, J=   5


     1 CALLS TO GCG PACKAGE FOR TRANSPORT TIME STEP   1 IN FLOW TIME STEP  54 STRESS PERIOD   5
     2 TOTAL ITERATIONS
  MAXIMUM CONCENTRATION CHANGES FOR EACH ITERATION:
  MAX. CHANGE LAYER,ROW,COL MAX. CHANGE LAYER,ROW,COL MAX. CHANGE LAYER,ROW,COL MAX. CHANGE LAYER,ROW,COL MAX. CHANGE LAYER,ROW,COL
 ------------------------------------------------------------------------------------------------------------------------------------
   0.8001E-03 (  1,  5,  5)  0.1776E-14 (  2,  7,  3)


                                          ================================================
                                                         TIME STEP NO.  055
                                          ================================================

 FROM TIME =   355.00     TO    356.00    


                    "THKSAT          " FLOW TERMS FOR TIME STEP 55, STRESS PERIOD  5 READ UNFORMATTED ON UNIT 10
                    --------------------------------------------------------------------------------------------

                    "QXX             " FLOW TERMS FOR TIME STEP 55, STRESS PERIOD  5 READ UNFORMATTED ON UNIT 10
                    --------------------------------------------------------------------------------------------

                    "QYY             " FLOW TERMS FOR TIME STEP 55, STRESS PERIOD  5 READ UNFORMATTED ON UNIT 10
                    --------------------------------------------------------------------------------------------

                    "QZZ             " FLOW TERMS FOR TIME STEP 55, STRESS PERIOD  5 READ UNFORMATTED ON UNIT 10
                    --------------------------------------------------------------------------------------------

                    "STO             " FLOW TERMS FOR TIME STEP 55, STRESS PERIOD  5 READ UNFORMATTED ON UNIT 10
                    --------------------------------------------------------------------------------------------

 MAXIMUM STEPSIZE DURING WHICH ANY PARTICLE CANNOT MOVE MORE THAN ONE CELL
 =  820.2    (WHEN MIN. R.F.=1)  AT K=   2, I=   5, J=   5

 MAXIMUM STEPSIZE WHICH MEETS STABILITY CRITERION OF THE ADVECTION TERM
 (FOR PURE FINITE-DIFFERENCE OPTION, MIXELM=0) 
 =  251.1    (WHEN MIN. R.F.=1)  AT K=   2, I=   5, J=   5

                    "CNH             " FLOW TERMS FOR TIME STEP 55, STRESS PERIOD  5 READ UNFORMATTED ON UNIT 10
                    --------------------------------------------------------------------------------------------

                    "WEL             " FLOW TERMS FOR TIME STEP 55, STRESS PERIOD  5 READ UNFORMATTED ON UNIT 10
                    --------------------------------------------------------------------------------------------

                    "GHB             " FLOW TERMS FOR TIME STEP 55, STRESS PERIOD  5 READ UNFORMATTED ON UNIT 10
                    --------------------------------------------------------------------------------------------


 TOTAL NUMBER OF POINT SOURCES/SINKS PRESENT IN THE FLOW MODEL =    41

 MAXIMUM STEPSIZE WHICH MEETS STABILITY CRITERION OF THE SINK & SOURCE TERM
 =  5492.    (WHEN MIN. R.F.=1)  AT K=   2, I=   5, J=   1

 MAXIMUM STEPSIZE WHICH MEETS STABILITY CRITERION OF THE DISPERSION TERM
 =  482.9    (WHEN MIN. R.F.=1)  AT K=   1, I=   5, J=   5


     1 CALLS TO GCG PACKAGE FOR TRANSPORT TIME STEP   1 IN FLOW TIME STEP  55 STRESS PERIOD   5
     2 TOTAL ITERATIONS
  MAXIMUM CONCENTRATION CHANGES FOR EACH ITERATION:
  MAX. CHANGE LAYER,ROW,COL MAX. CHANGE LAYER,ROW,COL MAX. CHANGE LAYER,ROW,COL MAX. CHANGE LAYER,ROW,COL MAX. CHANGE LAYER,ROW,COL
 ------------------------------------------------------------------------------------------------------------------------------------
   0.8022E-03 (  1,  5,  5)  0.1776E-14 (  2,  7,  3)


                                          ================================================
                                                         TIME STEP NO.  056
                                          ================================================

 FROM TIME =   356.00     TO    357.00    


                    "THKSAT          " FLOW TERMS FOR TIME STEP 56, STRESS PERIOD  5 READ UNFORMATTED ON UNIT 10
                    --------------------------------------------------------------------------------------------

                    "QXX             " FLOW TERMS FOR TIME STEP 56, STRESS PERIOD  5 READ UNFORMATTED ON UNIT 10
                    --------------------------------------------------------------------------------------------

                    "QYY             " FLOW TERMS FOR TIME STEP 56, STRESS PERIOD  5 READ UNFORMATTED ON UNIT 10
                    --------------------------------------------------------------------------------------------

                    "QZZ             " FLOW TERMS FOR TIME STEP 56, STRESS PERIOD  5 READ UNFORMATTED ON UNIT 10
                    --------------------------------------------------------------------------------------------

                    "STO             " FLOW TERMS FOR TIME STEP 56, STRESS PERIOD  5 READ UNFORMATTED ON UNIT 10
                    --------------------------------------------------------------------------------------------

 MAXIMUM STEPSIZE DURING WHICH ANY PARTICLE CANNOT MOVE MORE THAN ONE CELL
 =  818.4    (WHEN MIN. R.F.=1)  AT K=   2, I=   5, J=   5

 MAXIMUM STEPSIZE WHICH MEETS STABILITY CRITERION OF THE ADVECTION TERM
 (FOR PURE FINITE-DIFFERENCE OPTION, MIXELM=0) 
 =  250.6    (WHEN MIN. R.F.=1)  AT K=   2, I=   5, J=   5

                    "CNH             " FLOW TERMS FOR TIME STEP 56, STRESS PERIOD  5 READ UNFORMATTED ON UNIT 10
                    --------------------------------------------------------------------------------------------

                    "WEL             " FLOW TERMS FOR TIME STEP 56, STRESS PERIOD  5 READ UNFORMATTED ON UNIT 10
                    --------------------------------------------------------------------------------------------

                    "GHB             " FLOW TERMS FOR TIME STEP 56, STRESS PERIOD  5 READ UNFORMATTED ON UNIT 10
                    --------------------------------------------------------------------------------------------


 TOTAL NUMBER OF POINT SOURCES/SINKS PRESENT IN THE FLOW MODEL =    41

 MAXIMUM STEPSIZE WHICH MEETS STABILITY CRITERION OF THE SINK & SOURCE TERM
 =  5395.    (WHEN MIN. R.F.=1)  AT K=   2, I=   5, J=   1

 MAXIMUM STEPSIZE WHICH MEETS STABILITY CRITERION OF THE DISPERSION TERM
 =  481.3    (WHEN MIN. R.F.=1)  AT K=   1, I=   5, J=   5


     1 CALLS TO GCG PACKAGE FOR TRANSPORT TIME STEP   1 IN FLOW TIME STEP  56 STRESS PERIOD   5
     2 TOTAL ITERATIONS
  MAXIMUM CONCENTRATION CHANGES FOR EACH ITERATION:
  MAX. CHANGE LAYER,ROW,COL MAX. CHANGE LAYER,ROW,COL MAX. CHANGE LAYER,ROW,COL MAX. CHANGE LAYER,ROW,COL MAX. CHANGE LAYER,ROW,COL
 ------------------------------------------------------------------------------------------------------------------------------------
   0.8043E-03 (  1,  5,  5)  0.1776E-14 (  2,  7,  3)


                                          ================================================
                                                         TIME STEP NO.  057
                                          ================================================

 FROM TIME =   357.00     TO    358.00    


                    "THKSAT          " FLOW TERMS FOR TIME STEP 57, STRESS PERIOD  5 READ UNFORMATTED ON UNIT 10
                    --------------------------------------------------------------------------------------------

                    "QXX             " FLOW TERMS FOR TIME STEP 57, STRESS PERIOD  5 READ UNFORMATTED ON UNIT 10
                    --------------------------------------------------------------------------------------------

                    "QYY             " FLOW TERMS FOR TIME STEP 57, STRESS PERIOD  5 READ UNFORMATTED ON UNIT 10
                    --------------------------------------------------------------------------------------------

                    "QZZ             " FLOW TERMS FOR TIME STEP 57, STRESS PERIOD  5 READ UNFORMATTED ON UNIT 10
                    --------------------------------------------------------------------------------------------

                    "STO             " FLOW TERMS FOR TIME STEP 57, STRESS PERIOD  5 READ UNFORMATTED ON UNIT 10
                    --------------------------------------------------------------------------------------------

 MAXIMUM STEPSIZE DURING WHICH ANY PARTICLE CANNOT MOVE MORE THAN ONE CELL
 =  816.7    (WHEN MIN. R.F.=1)  AT K=   2, I=   5, J=   5

 MAXIMUM STEPSIZE WHICH MEETS STABILITY CRITERION OF THE ADVECTION TERM
 (FOR PURE FINITE-DIFFERENCE OPTION, MIXELM=0) 
 =  250.1    (WHEN MIN. R.F.=1)  AT K=   2, I=   5, J=   5

                    "CNH             " FLOW TERMS FOR TIME STEP 57, STRESS PERIOD  5 READ UNFORMATTED ON UNIT 10
                    --------------------------------------------------------------------------------------------

                    "WEL             " FLOW TERMS FOR TIME STEP 57, STRESS PERIOD  5 READ UNFORMATTED ON UNIT 10
                    --------------------------------------------------------------------------------------------

                    "GHB             " FLOW TERMS FOR TIME STEP 57, STRESS PERIOD  5 READ UNFORMATTED ON UNIT 10
                    --------------------------------------------------------------------------------------------


 TOTAL NUMBER OF POINT SOURCES/SINKS PRESENT IN THE FLOW MODEL =    41

 MAXIMUM STEPSIZE WHICH MEETS STABILITY CRITERION OF THE SINK & SOURCE TERM
 =  5303.    (WHEN MIN. R.F.=1)  AT K=   2, I=   5, J=   1

 MAXIMUM STEPSIZE WHICH MEETS STABILITY CRITERION OF THE DISPERSION TERM
 =  479.7    (WHEN MIN. R.F.=1)  AT K=   1, I=   5, J=   5


     1 CALLS TO GCG PACKAGE FOR TRANSPORT TIME STEP   1 IN FLOW TIME STEP  57 STRESS PERIOD   5
     2 TOTAL ITERATIONS
  MAXIMUM CONCENTRATION CHANGES FOR EACH ITERATION:
  MAX. CHANGE LAYER,ROW,COL MAX. CHANGE LAYER,ROW,COL MAX. CHANGE LAYER,ROW,COL MAX. CHANGE LAYER,ROW,COL MAX. CHANGE LAYER,ROW,COL
 ------------------------------------------------------------------------------------------------------------------------------------
   0.8063E-03 (  1,  5,  5)  0.1776E-14 (  2,  7,  3)


                                          ================================================
                                                         TIME STEP NO.  058
                                          ================================================

 FROM TIME =   358.00     TO    359.00    


                    "THKSAT          " FLOW TERMS FOR TIME STEP 58, STRESS PERIOD  5 READ UNFORMATTED ON UNIT 10
                    --------------------------------------------------------------------------------------------

                    "QXX             " FLOW TERMS FOR TIME STEP 58, STRESS PERIOD  5 READ UNFORMATTED ON UNIT 10
                    --------------------------------------------------------------------------------------------

                    "QYY             " FLOW TERMS FOR TIME STEP 58, STRESS PERIOD  5 READ UNFORMATTED ON UNIT 10
                    --------------------------------------------------------------------------------------------

                    "QZZ             " FLOW TERMS FOR TIME STEP 58, STRESS PERIOD  5 READ UNFORMATTED ON UNIT 10
                    --------------------------------------------------------------------------------------------

                    "STO             " FLOW TERMS FOR TIME STEP 58, STRESS PERIOD  5 READ UNFORMATTED ON UNIT 10
                    --------------------------------------------------------------------------------------------

 MAXIMUM STEPSIZE DURING WHICH ANY PARTICLE CANNOT MOVE MORE THAN ONE CELL
 =  815.1    (WHEN MIN. R.F.=1)  AT K=   2, I=   5, J=   5

 MAXIMUM STEPSIZE WHICH MEETS STABILITY CRITERION OF THE ADVECTION TERM
 (FOR PURE FINITE-DIFFERENCE OPTION, MIXELM=0) 
 =  249.6    (WHEN MIN. R.F.=1)  AT K=   2, I=   5, J=   5

                    "CNH             " FLOW TERMS FOR TIME STEP 58, STRESS PERIOD  5 READ UNFORMATTED ON UNIT 10
                    --------------------------------------------------------------------------------------------

                    "WEL             " FLOW TERMS FOR TIME STEP 58, STRESS PERIOD  5 READ UNFORMATTED ON UNIT 10
                    --------------------------------------------------------------------------------------------

                    "GHB             " FLOW TERMS FOR TIME STEP 58, STRESS PERIOD  5 READ UNFORMATTED ON UNIT 10
                    --------------------------------------------------------------------------------------------


 TOTAL NUMBER OF POINT SOURCES/SINKS PRESENT IN THE FLOW MODEL =    41

 MAXIMUM STEPSIZE WHICH MEETS STABILITY CRITERION OF THE SINK & SOURCE TERM
 =  5214.    (WHEN MIN. R.F.=1)  AT K=   2, I=   5, J=   1

 MAXIMUM STEPSIZE WHICH MEETS STABILITY CRITERION OF THE DISPERSION TERM
 =  478.2    (WHEN MIN. R.F.=1)  AT K=   1, I=   5, J=   5


     1 CALLS TO GCG PACKAGE FOR TRANSPORT TIME STEP   1 IN FLOW TIME STEP  58 STRESS PERIOD   5
     2 TOTAL ITERATIONS
  MAXIMUM CONCENTRATION CHANGES FOR EACH ITERATION:
  MAX. CHANGE LAYER,ROW,COL MAX. CHANGE LAYER,ROW,COL MAX. CHANGE LAYER,ROW,COL MAX. CHANGE LAYER,ROW,COL MAX. CHANGE LAYER,ROW,COL
 ------------------------------------------------------------------------------------------------------------------------------------
   0.8081E-03 (  1,  5,  5)  0.1776E-14 (  2,  7,  3)


                                          ================================================
                                                         TIME STEP NO.  059
                                          ================================================

 FROM TIME =   359.00     TO    360.00    


                    "THKSAT          " FLOW TERMS FOR TIME STEP 59, STRESS PERIOD  5 READ UNFORMATTED ON UNIT 10
                    --------------------------------------------------------------------------------------------

                    "QXX             " FLOW TERMS FOR TIME STEP 59, STRESS PERIOD  5 READ UNFORMATTED ON UNIT 10
                    --------------------------------------------------------------------------------------------

                    "QYY             " FLOW TERMS FOR TIME STEP 59, STRESS PERIOD  5 READ UNFORMATTED ON UNIT 10
                    --------------------------------------------------------------------------------------------

                    "QZZ             " FLOW TERMS FOR TIME STEP 59, STRESS PERIOD  5 READ UNFORMATTED ON UNIT 10
                    --------------------------------------------------------------------------------------------

                    "STO             " FLOW TERMS FOR TIME STEP 59, STRESS PERIOD  5 READ UNFORMATTED ON UNIT 10
                    --------------------------------------------------------------------------------------------

 MAXIMUM STEPSIZE DURING WHICH ANY PARTICLE CANNOT MOVE MORE THAN ONE CELL
 =  813.5    (WHEN MIN. R.F.=1)  AT K=   2, I=   5, J=   5

 MAXIMUM STEPSIZE WHICH MEETS STABILITY CRITERION OF THE ADVECTION TERM
 (FOR PURE FINITE-DIFFERENCE OPTION, MIXELM=0) 
 =  249.1    (WHEN MIN. R.F.=1)  AT K=   2, I=   5, J=   5

                    "CNH             " FLOW TERMS FOR TIME STEP 59, STRESS PERIOD  5 READ UNFORMATTED ON UNIT 10
                    --------------------------------------------------------------------------------------------

                    "WEL             " FLOW TERMS FOR TIME STEP 59, STRESS PERIOD  5 READ UNFORMATTED ON UNIT 10
                    --------------------------------------------------------------------------------------------

                    "GHB             " FLOW TERMS FOR TIME STEP 59, STRESS PERIOD  5 READ UNFORMATTED ON UNIT 10
                    --------------------------------------------------------------------------------------------


 TOTAL NUMBER OF POINT SOURCES/SINKS PRESENT IN THE FLOW MODEL =    41

 MAXIMUM STEPSIZE WHICH MEETS STABILITY CRITERION OF THE SINK & SOURCE TERM
 =  5129.    (WHEN MIN. R.F.=1)  AT K=   2, I=   5, J=   1

 MAXIMUM STEPSIZE WHICH MEETS STABILITY CRITERION OF THE DISPERSION TERM
 =  476.7    (WHEN MIN. R.F.=1)  AT K=   1, I=   5, J=   5


     1 CALLS TO GCG PACKAGE FOR TRANSPORT TIME STEP   1 IN FLOW TIME STEP  59 STRESS PERIOD   5
     2 TOTAL ITERATIONS
  MAXIMUM CONCENTRATION CHANGES FOR EACH ITERATION:
  MAX. CHANGE LAYER,ROW,COL MAX. CHANGE LAYER,ROW,COL MAX. CHANGE LAYER,ROW,COL MAX. CHANGE LAYER,ROW,COL MAX. CHANGE LAYER,ROW,COL
 ------------------------------------------------------------------------------------------------------------------------------------
   0.9108E-03 (  1,  5,  5)  0.1776E-14 (  2,  7,  3)


                                          ================================================
                                                         TIME STEP NO.  060
                                          ================================================

 FROM TIME =   360.00     TO    361.00    


                    "THKSAT          " FLOW TERMS FOR TIME STEP 60, STRESS PERIOD  5 READ UNFORMATTED ON UNIT 10
                    --------------------------------------------------------------------------------------------

                    "QXX             " FLOW TERMS FOR TIME STEP 60, STRESS PERIOD  5 READ UNFORMATTED ON UNIT 10
                    --------------------------------------------------------------------------------------------

                    "QYY             " FLOW TERMS FOR TIME STEP 60, STRESS PERIOD  5 READ UNFORMATTED ON UNIT 10
                    --------------------------------------------------------------------------------------------

                    "QZZ             " FLOW TERMS FOR TIME STEP 60, STRESS PERIOD  5 READ UNFORMATTED ON UNIT 10
                    --------------------------------------------------------------------------------------------

                    "STO             " FLOW TERMS FOR TIME STEP 60, STRESS PERIOD  5 READ UNFORMATTED ON UNIT 10
                    --------------------------------------------------------------------------------------------

 MAXIMUM STEPSIZE DURING WHICH ANY PARTICLE CANNOT MOVE MORE THAN ONE CELL
 =  811.9    (WHEN MIN. R.F.=1)  AT K=   2, I=   5, J=   5

 MAXIMUM STEPSIZE WHICH MEETS STABILITY CRITERION OF THE ADVECTION TERM
 (FOR PURE FINITE-DIFFERENCE OPTION, MIXELM=0) 
 =  248.6    (WHEN MIN. R.F.=1)  AT K=   2, I=   5, J=   5

                    "CNH             " FLOW TERMS FOR TIME STEP 60, STRESS PERIOD  5 READ UNFORMATTED ON UNIT 10
                    --------------------------------------------------------------------------------------------

                    "WEL             " FLOW TERMS FOR TIME STEP 60, STRESS PERIOD  5 READ UNFORMATTED ON UNIT 10
                    --------------------------------------------------------------------------------------------

                    "GHB             " FLOW TERMS FOR TIME STEP 60, STRESS PERIOD  5 READ UNFORMATTED ON UNIT 10
                    --------------------------------------------------------------------------------------------


 TOTAL NUMBER OF POINT SOURCES/SINKS PRESENT IN THE FLOW MODEL =    41

 MAXIMUM STEPSIZE WHICH MEETS STABILITY CRITERION OF THE SINK & SOURCE TERM
 =  5049.    (WHEN MIN. R.F.=1)  AT K=   2, I=   5, J=   1

 MAXIMUM STEPSIZE WHICH MEETS STABILITY CRITERION OF THE DISPERSION TERM
 =  475.3    (WHEN MIN. R.F.=1)  AT K=   1, I=   5, J=   5


     1 CALLS TO GCG PACKAGE FOR TRANSPORT TIME STEP   1 IN FLOW TIME STEP  60 STRESS PERIOD   5
     2 TOTAL ITERATIONS
  MAXIMUM CONCENTRATION CHANGES FOR EACH ITERATION:
  MAX. CHANGE LAYER,ROW,COL MAX. CHANGE LAYER,ROW,COL MAX. CHANGE LAYER,ROW,COL MAX. CHANGE LAYER,ROW,COL MAX. CHANGE LAYER,ROW,COL
 ------------------------------------------------------------------------------------------------------------------------------------
   0.9128E-03 (  1,  5,  5)  0.1776E-14 (  2,  7,  3)


                                          ================================================
                                                         TIME STEP NO.  061
                                          ================================================

 FROM TIME =   361.00     TO    362.00    


                    "THKSAT          " FLOW TERMS FOR TIME STEP 61, STRESS PERIOD  5 READ UNFORMATTED ON UNIT 10
                    --------------------------------------------------------------------------------------------

                    "QXX             " FLOW TERMS FOR TIME STEP 61, STRESS PERIOD  5 READ UNFORMATTED ON UNIT 10
                    --------------------------------------------------------------------------------------------

                    "QYY             " FLOW TERMS FOR TIME STEP 61, STRESS PERIOD  5 READ UNFORMATTED ON UNIT 10
                    --------------------------------------------------------------------------------------------

                    "QZZ             " FLOW TERMS FOR TIME STEP 61, STRESS PERIOD  5 READ UNFORMATTED ON UNIT 10
                    --------------------------------------------------------------------------------------------

                    "STO             " FLOW TERMS FOR TIME STEP 61, STRESS PERIOD  5 READ UNFORMATTED ON UNIT 10
                    --------------------------------------------------------------------------------------------

 MAXIMUM STEPSIZE DURING WHICH ANY PARTICLE CANNOT MOVE MORE THAN ONE CELL
 =  810.4    (WHEN MIN. R.F.=1)  AT K=   2, I=   5, J=   5

 MAXIMUM STEPSIZE WHICH MEETS STABILITY CRITERION OF THE ADVECTION TERM
 (FOR PURE FINITE-DIFFERENCE OPTION, MIXELM=0) 
 =  248.2    (WHEN MIN. R.F.=1)  AT K=   2, I=   5, J=   5

                    "CNH             " FLOW TERMS FOR TIME STEP 61, STRESS PERIOD  5 READ UNFORMATTED ON UNIT 10
                    --------------------------------------------------------------------------------------------

                    "WEL             " FLOW TERMS FOR TIME STEP 61, STRESS PERIOD  5 READ UNFORMATTED ON UNIT 10
                    --------------------------------------------------------------------------------------------

                    "GHB             " FLOW TERMS FOR TIME STEP 61, STRESS PERIOD  5 READ UNFORMATTED ON UNIT 10
                    --------------------------------------------------------------------------------------------


 TOTAL NUMBER OF POINT SOURCES/SINKS PRESENT IN THE FLOW MODEL =    41

 MAXIMUM STEPSIZE WHICH MEETS STABILITY CRITERION OF THE SINK & SOURCE TERM
 =  4970.    (WHEN MIN. R.F.=1)  AT K=   2, I=   5, J=   1

 MAXIMUM STEPSIZE WHICH MEETS STABILITY CRITERION OF THE DISPERSION TERM
 =  473.9    (WHEN MIN. R.F.=1)  AT K=   1, I=   5, J=   5


     1 CALLS TO GCG PACKAGE FOR TRANSPORT TIME STEP   1 IN FLOW TIME STEP  61 STRESS PERIOD   5
     2 TOTAL ITERATIONS
  MAXIMUM CONCENTRATION CHANGES FOR EACH ITERATION:
  MAX. CHANGE LAYER,ROW,COL MAX. CHANGE LAYER,ROW,COL MAX. CHANGE LAYER,ROW,COL MAX. CHANGE LAYER,ROW,COL MAX. CHANGE LAYER,ROW,COL
 ------------------------------------------------------------------------------------------------------------------------------------
   0.9148E-03 (  1,  5,  5)  0.1776E-14 (  2,  7,  3)


                                          ================================================
                                                         TIME STEP NO.  062
                                          ================================================

 FROM TIME =   362.00     TO    363.00    


                    "THKSAT          " FLOW TERMS FOR TIME STEP 62, STRESS PERIOD  5 READ UNFORMATTED ON UNIT 10
                    --------------------------------------------------------------------------------------------

                    "QXX             " FLOW TERMS FOR TIME STEP 62, STRESS PERIOD  5 READ UNFORMATTED ON UNIT 10
                    --------------------------------------------------------------------------------------------

                    "QYY             " FLOW TERMS FOR TIME STEP 62, STRESS PERIOD  5 READ UNFORMATTED ON UNIT 10
                    --------------------------------------------------------------------------------------------

                    "QZZ             " FLOW TERMS FOR TIME STEP 62, STRESS PERIOD  5 READ UNFORMATTED ON UNIT 10
                    --------------------------------------------------------------------------------------------

                    "STO             " FLOW TERMS FOR TIME STEP 62, STRESS PERIOD  5 READ UNFORMATTED ON UNIT 10
                    --------------------------------------------------------------------------------------------

 MAXIMUM STEPSIZE DURING WHICH ANY PARTICLE CANNOT MOVE MORE THAN ONE CELL
 =  808.9    (WHEN MIN. R.F.=1)  AT K=   2, I=   5, J=   5

 MAXIMUM STEPSIZE WHICH MEETS STABILITY CRITERION OF THE ADVECTION TERM
 (FOR PURE FINITE-DIFFERENCE OPTION, MIXELM=0) 
 =  247.7    (WHEN MIN. R.F.=1)  AT K=   2, I=   5, J=   5

                    "CNH             " FLOW TERMS FOR TIME STEP 62, STRESS PERIOD  5 READ UNFORMATTED ON UNIT 10
                    --------------------------------------------------------------------------------------------

                    "WEL             " FLOW TERMS FOR TIME STEP 62, STRESS PERIOD  5 READ UNFORMATTED ON UNIT 10
                    --------------------------------------------------------------------------------------------

                    "GHB             " FLOW TERMS FOR TIME STEP 62, STRESS PERIOD  5 READ UNFORMATTED ON UNIT 10
                    --------------------------------------------------------------------------------------------


 TOTAL NUMBER OF POINT SOURCES/SINKS PRESENT IN THE FLOW MODEL =    41

 MAXIMUM STEPSIZE WHICH MEETS STABILITY CRITERION OF THE SINK & SOURCE TERM
 =  4896.    (WHEN MIN. R.F.=1)  AT K=   2, I=   5, J=   1

 MAXIMUM STEPSIZE WHICH MEETS STABILITY CRITERION OF THE DISPERSION TERM
 =  472.5    (WHEN MIN. R.F.=1)  AT K=   1, I=   5, J=   5


     1 CALLS TO GCG PACKAGE FOR TRANSPORT TIME STEP   1 IN FLOW TIME STEP  62 STRESS PERIOD   5
     2 TOTAL ITERATIONS
  MAXIMUM CONCENTRATION CHANGES FOR EACH ITERATION:
  MAX. CHANGE LAYER,ROW,COL MAX. CHANGE LAYER,ROW,COL MAX. CHANGE LAYER,ROW,COL MAX. CHANGE LAYER,ROW,COL MAX. CHANGE LAYER,ROW,COL
 ------------------------------------------------------------------------------------------------------------------------------------
   0.9167E-03 (  1,  5,  5)  0.1776E-14 (  2,  7,  3)


                                          ================================================
                                                         TIME STEP NO.  063
                                          ================================================

 FROM TIME =   363.00     TO    364.00    


                    "THKSAT          " FLOW TERMS FOR TIME STEP 63, STRESS PERIOD  5 READ UNFORMATTED ON UNIT 10
                    --------------------------------------------------------------------------------------------

                    "QXX             " FLOW TERMS FOR TIME STEP 63, STRESS PERIOD  5 READ UNFORMATTED ON UNIT 10
                    --------------------------------------------------------------------------------------------

                    "QYY             " FLOW TERMS FOR TIME STEP 63, STRESS PERIOD  5 READ UNFORMATTED ON UNIT 10
                    --------------------------------------------------------------------------------------------

                    "QZZ             " FLOW TERMS FOR TIME STEP 63, STRESS PERIOD  5 READ UNFORMATTED ON UNIT 10
                    --------------------------------------------------------------------------------------------

                    "STO             " FLOW TERMS FOR TIME STEP 63, STRESS PERIOD  5 READ UNFORMATTED ON UNIT 10
                    --------------------------------------------------------------------------------------------

 MAXIMUM STEPSIZE DURING WHICH ANY PARTICLE CANNOT MOVE MORE THAN ONE CELL
 =  807.5    (WHEN MIN. R.F.=1)  AT K=   2, I=   5, J=   5

 MAXIMUM STEPSIZE WHICH MEETS STABILITY CRITERION OF THE ADVECTION TERM
 (FOR PURE FINITE-DIFFERENCE OPTION, MIXELM=0) 
 =  247.3    (WHEN MIN. R.F.=1)  AT K=   2, I=   5, J=   5

                    "CNH             " FLOW TERMS FOR TIME STEP 63, STRESS PERIOD  5 READ UNFORMATTED ON UNIT 10
                    --------------------------------------------------------------------------------------------

                    "WEL             " FLOW TERMS FOR TIME STEP 63, STRESS PERIOD  5 READ UNFORMATTED ON UNIT 10
                    --------------------------------------------------------------------------------------------

                    "GHB             " FLOW TERMS FOR TIME STEP 63, STRESS PERIOD  5 READ UNFORMATTED ON UNIT 10
                    --------------------------------------------------------------------------------------------


 TOTAL NUMBER OF POINT SOURCES/SINKS PRESENT IN THE FLOW MODEL =    41

 MAXIMUM STEPSIZE WHICH MEETS STABILITY CRITERION OF THE SINK & SOURCE TERM
 =  4824.    (WHEN MIN. R.F.=1)  AT K=   2, I=   5, J=   1

 MAXIMUM STEPSIZE WHICH MEETS STABILITY CRITERION OF THE DISPERSION TERM
 =  471.2    (WHEN MIN. R.F.=1)  AT K=   1, I=   5, J=   5


     1 CALLS TO GCG PACKAGE FOR TRANSPORT TIME STEP   1 IN FLOW TIME STEP  63 STRESS PERIOD   5
     2 TOTAL ITERATIONS
  MAXIMUM CONCENTRATION CHANGES FOR EACH ITERATION:
  MAX. CHANGE LAYER,ROW,COL MAX. CHANGE LAYER,ROW,COL MAX. CHANGE LAYER,ROW,COL MAX. CHANGE LAYER,ROW,COL MAX. CHANGE LAYER,ROW,COL
 ------------------------------------------------------------------------------------------------------------------------------------
   0.9186E-03 (  1,  5,  5)  0.1776E-14 (  2,  7,  3)


                                          ================================================
                                                         TIME STEP NO.  064
                                          ================================================

 FROM TIME =   364.00     TO    365.00    


                    "THKSAT          " FLOW TERMS FOR TIME STEP 64, STRESS PERIOD  5 READ UNFORMATTED ON UNIT 10
                    --------------------------------------------------------------------------------------------

                    "QXX             " FLOW TERMS FOR TIME STEP 64, STRESS PERIOD  5 READ UNFORMATTED ON UNIT 10
                    --------------------------------------------------------------------------------------------

                    "QYY             " FLOW TERMS FOR TIME STEP 64, STRESS PERIOD  5 READ UNFORMATTED ON UNIT 10
                    --------------------------------------------------------------------------------------------

                    "QZZ             " FLOW TERMS FOR TIME STEP 64, STRESS PERIOD  5 READ UNFORMATTED ON UNIT 10
                    --------------------------------------------------------------------------------------------

                    "STO             " FLOW TERMS FOR TIME STEP 64, STRESS PERIOD  5 READ UNFORMATTED ON UNIT 10
                    --------------------------------------------------------------------------------------------

 MAXIMUM STEPSIZE DURING WHICH ANY PARTICLE CANNOT MOVE MORE THAN ONE CELL
 =  806.1    (WHEN MIN. R.F.=1)  AT K=   2, I=   5, J=   5

 MAXIMUM STEPSIZE WHICH MEETS STABILITY CRITERION OF THE ADVECTION TERM
 (FOR PURE FINITE-DIFFERENCE OPTION, MIXELM=0) 
 =  246.9    (WHEN MIN. R.F.=1)  AT K=   2, I=   5, J=   5

                    "CNH             " FLOW TERMS FOR TIME STEP 64, STRESS PERIOD  5 READ UNFORMATTED ON UNIT 10
                    --------------------------------------------------------------------------------------------

                    "WEL             " FLOW TERMS FOR TIME STEP 64, STRESS PERIOD  5 READ UNFORMATTED ON UNIT 10
                    --------------------------------------------------------------------------------------------

                    "GHB             " FLOW TERMS FOR TIME STEP 64, STRESS PERIOD  5 READ UNFORMATTED ON UNIT 10
                    --------------------------------------------------------------------------------------------


 TOTAL NUMBER OF POINT SOURCES/SINKS PRESENT IN THE FLOW MODEL =    41

 MAXIMUM STEPSIZE WHICH MEETS STABILITY CRITERION OF THE SINK & SOURCE TERM
 =  4755.    (WHEN MIN. R.F.=1)  AT K=   2, I=   5, J=   1

 MAXIMUM STEPSIZE WHICH MEETS STABILITY CRITERION OF THE DISPERSION TERM
 =  469.9    (WHEN MIN. R.F.=1)  AT K=   1, I=   5, J=   5


     1 CALLS TO GCG PACKAGE FOR TRANSPORT TIME STEP   1 IN FLOW TIME STEP  64 STRESS PERIOD   5
     2 TOTAL ITERATIONS
  MAXIMUM CONCENTRATION CHANGES FOR EACH ITERATION:
  MAX. CHANGE LAYER,ROW,COL MAX. CHANGE LAYER,ROW,COL MAX. CHANGE LAYER,ROW,COL MAX. CHANGE LAYER,ROW,COL MAX. CHANGE LAYER,ROW,COL
 ------------------------------------------------------------------------------------------------------------------------------------
   0.9202E-03 (  1,  5,  5)  0.1776E-14 (  2,  7,  3)


                                          ================================================
                                                         TIME STEP NO.  065
                                          ================================================

 FROM TIME =   365.00     TO    366.00    


                    "THKSAT          " FLOW TERMS FOR TIME STEP 65, STRESS PERIOD  5 READ UNFORMATTED ON UNIT 10
                    --------------------------------------------------------------------------------------------

                    "QXX             " FLOW TERMS FOR TIME STEP 65, STRESS PERIOD  5 READ UNFORMATTED ON UNIT 10
                    --------------------------------------------------------------------------------------------

                    "QYY             " FLOW TERMS FOR TIME STEP 65, STRESS PERIOD  5 READ UNFORMATTED ON UNIT 10
                    --------------------------------------------------------------------------------------------

                    "QZZ             " FLOW TERMS FOR TIME STEP 65, STRESS PERIOD  5 READ UNFORMATTED ON UNIT 10
                    --------------------------------------------------------------------------------------------

                    "STO             " FLOW TERMS FOR TIME STEP 65, STRESS PERIOD  5 READ UNFORMATTED ON UNIT 10
                    --------------------------------------------------------------------------------------------

 MAXIMUM STEPSIZE DURING WHICH ANY PARTICLE CANNOT MOVE MORE THAN ONE CELL
 =  804.7    (WHEN MIN. R.F.=1)  AT K=   2, I=   5, J=   5

 MAXIMUM STEPSIZE WHICH MEETS STABILITY CRITERION OF THE ADVECTION TERM
 (FOR PURE FINITE-DIFFERENCE OPTION, MIXELM=0) 
 =  246.5    (WHEN MIN. R.F.=1)  AT K=   2, I=   5, J=   5

                    "CNH             " FLOW TERMS FOR TIME STEP 65, STRESS PERIOD  5 READ UNFORMATTED ON UNIT 10
                    --------------------------------------------------------------------------------------------

                    "WEL             " FLOW TERMS FOR TIME STEP 65, STRESS PERIOD  5 READ UNFORMATTED ON UNIT 10
                    --------------------------------------------------------------------------------------------

                    "GHB             " FLOW TERMS FOR TIME STEP 65, STRESS PERIOD  5 READ UNFORMATTED ON UNIT 10
                    --------------------------------------------------------------------------------------------


 TOTAL NUMBER OF POINT SOURCES/SINKS PRESENT IN THE FLOW MODEL =    41

 MAXIMUM STEPSIZE WHICH MEETS STABILITY CRITERION OF THE SINK & SOURCE TERM
 =  4690.    (WHEN MIN. R.F.=1)  AT K=   2, I=   5, J=   1

 MAXIMUM STEPSIZE WHICH MEETS STABILITY CRITERION OF THE DISPERSION TERM
 =  468.6    (WHEN MIN. R.F.=1)  AT K=   1, I=   5, J=   5


     1 CALLS TO GCG PACKAGE FOR TRANSPORT TIME STEP   1 IN FLOW TIME STEP  65 STRESS PERIOD   5
     2 TOTAL ITERATIONS
  MAXIMUM CONCENTRATION CHANGES FOR EACH ITERATION:
  MAX. CHANGE LAYER,ROW,COL MAX. CHANGE LAYER,ROW,COL MAX. CHANGE LAYER,ROW,COL MAX. CHANGE LAYER,ROW,COL MAX. CHANGE LAYER,ROW,COL
 ------------------------------------------------------------------------------------------------------------------------------------
   0.9220E-03 (  1,  5,  5)  0.1776E-14 (  2,  7,  3)


                                          ================================================
                                                         TIME STEP NO.  066
                                          ================================================

 FROM TIME =   366.00     TO    367.00    


                    "THKSAT          " FLOW TERMS FOR TIME STEP 66, STRESS PERIOD  5 READ UNFORMATTED ON UNIT 10
                    --------------------------------------------------------------------------------------------

                    "QXX             " FLOW TERMS FOR TIME STEP 66, STRESS PERIOD  5 READ UNFORMATTED ON UNIT 10
                    --------------------------------------------------------------------------------------------

                    "QYY             " FLOW TERMS FOR TIME STEP 66, STRESS PERIOD  5 READ UNFORMATTED ON UNIT 10
                    --------------------------------------------------------------------------------------------

                    "QZZ             " FLOW TERMS FOR TIME STEP 66, STRESS PERIOD  5 READ UNFORMATTED ON UNIT 10
                    --------------------------------------------------------------------------------------------

                    "STO             " FLOW TERMS FOR TIME STEP 66, STRESS PERIOD  5 READ UNFORMATTED ON UNIT 10
                    --------------------------------------------------------------------------------------------

 MAXIMUM STEPSIZE DURING WHICH ANY PARTICLE CANNOT MOVE MORE THAN ONE CELL
 =  803.4    (WHEN MIN. R.F.=1)  AT K=   2, I=   5, J=   5

 MAXIMUM STEPSIZE WHICH MEETS STABILITY CRITERION OF THE ADVECTION TERM
 (FOR PURE FINITE-DIFFERENCE OPTION, MIXELM=0) 
 =  246.1    (WHEN MIN. R.F.=1)  AT K=   2, I=   5, J=   5

                    "CNH             " FLOW TERMS FOR TIME STEP 66, STRESS PERIOD  5 READ UNFORMATTED ON UNIT 10
                    --------------------------------------------------------------------------------------------

                    "WEL             " FLOW TERMS FOR TIME STEP 66, STRESS PERIOD  5 READ UNFORMATTED ON UNIT 10
                    --------------------------------------------------------------------------------------------

                    "GHB             " FLOW TERMS FOR TIME STEP 66, STRESS PERIOD  5 READ UNFORMATTED ON UNIT 10
                    --------------------------------------------------------------------------------------------


 TOTAL NUMBER OF POINT SOURCES/SINKS PRESENT IN THE FLOW MODEL =    41

 MAXIMUM STEPSIZE WHICH MEETS STABILITY CRITERION OF THE SINK & SOURCE TERM
 =  4625.    (WHEN MIN. R.F.=1)  AT K=   2, I=   5, J=   1

 MAXIMUM STEPSIZE WHICH MEETS STABILITY CRITERION OF THE DISPERSION TERM
 =  467.4    (WHEN MIN. R.F.=1)  AT K=   1, I=   5, J=   5


     1 CALLS TO GCG PACKAGE FOR TRANSPORT TIME STEP   1 IN FLOW TIME STEP  66 STRESS PERIOD   5
     2 TOTAL ITERATIONS
  MAXIMUM CONCENTRATION CHANGES FOR EACH ITERATION:
  MAX. CHANGE LAYER,ROW,COL MAX. CHANGE LAYER,ROW,COL MAX. CHANGE LAYER,ROW,COL MAX. CHANGE LAYER,ROW,COL MAX. CHANGE LAYER,ROW,COL
 ------------------------------------------------------------------------------------------------------------------------------------
   0.9238E-03 (  1,  5,  5)  0.1776E-14 (  2,  7,  3)


                                          ================================================
                                                         TIME STEP NO.  067
                                          ================================================

 FROM TIME =   367.00     TO    368.00    


                    "THKSAT          " FLOW TERMS FOR TIME STEP 67, STRESS PERIOD  5 READ UNFORMATTED ON UNIT 10
                    --------------------------------------------------------------------------------------------

                    "QXX             " FLOW TERMS FOR TIME STEP 67, STRESS PERIOD  5 READ UNFORMATTED ON UNIT 10
                    --------------------------------------------------------------------------------------------

                    "QYY             " FLOW TERMS FOR TIME STEP 67, STRESS PERIOD  5 READ UNFORMATTED ON UNIT 10
                    --------------------------------------------------------------------------------------------

                    "QZZ             " FLOW TERMS FOR TIME STEP 67, STRESS PERIOD  5 READ UNFORMATTED ON UNIT 10
                    --------------------------------------------------------------------------------------------

                    "STO             " FLOW TERMS FOR TIME STEP 67, STRESS PERIOD  5 READ UNFORMATTED ON UNIT 10
                    --------------------------------------------------------------------------------------------

 MAXIMUM STEPSIZE DURING WHICH ANY PARTICLE CANNOT MOVE MORE THAN ONE CELL
 =  802.1    (WHEN MIN. R.F.=1)  AT K=   2, I=   5, J=   5

 MAXIMUM STEPSIZE WHICH MEETS STABILITY CRITERION OF THE ADVECTION TERM
 (FOR PURE FINITE-DIFFERENCE OPTION, MIXELM=0) 
 =  245.7    (WHEN MIN. R.F.=1)  AT K=   2, I=   5, J=   5

                    "CNH             " FLOW TERMS FOR TIME STEP 67, STRESS PERIOD  5 READ UNFORMATTED ON UNIT 10
                    --------------------------------------------------------------------------------------------

                    "WEL             " FLOW TERMS FOR TIME STEP 67, STRESS PERIOD  5 READ UNFORMATTED ON UNIT 10
                    --------------------------------------------------------------------------------------------

                    "GHB             " FLOW TERMS FOR TIME STEP 67, STRESS PERIOD  5 READ UNFORMATTED ON UNIT 10
                    --------------------------------------------------------------------------------------------


 TOTAL NUMBER OF POINT SOURCES/SINKS PRESENT IN THE FLOW MODEL =    41

 MAXIMUM STEPSIZE WHICH MEETS STABILITY CRITERION OF THE SINK & SOURCE TERM
 =  4565.    (WHEN MIN. R.F.=1)  AT K=   2, I=   5, J=   1

 MAXIMUM STEPSIZE WHICH MEETS STABILITY CRITERION OF THE DISPERSION TERM
 =  466.2    (WHEN MIN. R.F.=1)  AT K=   1, I=   5, J=   5


     1 CALLS TO GCG PACKAGE FOR TRANSPORT TIME STEP   1 IN FLOW TIME STEP  67 STRESS PERIOD   5
     2 TOTAL ITERATIONS
  MAXIMUM CONCENTRATION CHANGES FOR EACH ITERATION:
  MAX. CHANGE LAYER,ROW,COL MAX. CHANGE LAYER,ROW,COL MAX. CHANGE LAYER,ROW,COL MAX. CHANGE LAYER,ROW,COL MAX. CHANGE LAYER,ROW,COL
 ------------------------------------------------------------------------------------------------------------------------------------
   0.9254E-03 (  1,  5,  5)  0.1776E-14 (  2,  7,  3)


                                          ================================================
                                                         TIME STEP NO.  068
                                          ================================================

 FROM TIME =   368.00     TO    369.00    


                    "THKSAT          " FLOW TERMS FOR TIME STEP 68, STRESS PERIOD  5 READ UNFORMATTED ON UNIT 10
                    --------------------------------------------------------------------------------------------

                    "QXX             " FLOW TERMS FOR TIME STEP 68, STRESS PERIOD  5 READ UNFORMATTED ON UNIT 10
                    --------------------------------------------------------------------------------------------

                    "QYY             " FLOW TERMS FOR TIME STEP 68, STRESS PERIOD  5 READ UNFORMATTED ON UNIT 10
                    --------------------------------------------------------------------------------------------

                    "QZZ             " FLOW TERMS FOR TIME STEP 68, STRESS PERIOD  5 READ UNFORMATTED ON UNIT 10
                    --------------------------------------------------------------------------------------------

                    "STO             " FLOW TERMS FOR TIME STEP 68, STRESS PERIOD  5 READ UNFORMATTED ON UNIT 10
                    --------------------------------------------------------------------------------------------

 MAXIMUM STEPSIZE DURING WHICH ANY PARTICLE CANNOT MOVE MORE THAN ONE CELL
 =  800.8    (WHEN MIN. R.F.=1)  AT K=   2, I=   5, J=   5

 MAXIMUM STEPSIZE WHICH MEETS STABILITY CRITERION OF THE ADVECTION TERM
 (FOR PURE FINITE-DIFFERENCE OPTION, MIXELM=0) 
 =  245.3    (WHEN MIN. R.F.=1)  AT K=   2, I=   5, J=   5

                    "CNH             " FLOW TERMS FOR TIME STEP 68, STRESS PERIOD  5 READ UNFORMATTED ON UNIT 10
                    --------------------------------------------------------------------------------------------

                    "WEL             " FLOW TERMS FOR TIME STEP 68, STRESS PERIOD  5 READ UNFORMATTED ON UNIT 10
                    --------------------------------------------------------------------------------------------

                    "GHB             " FLOW TERMS FOR TIME STEP 68, STRESS PERIOD  5 READ UNFORMATTED ON UNIT 10
                    --------------------------------------------------------------------------------------------


 TOTAL NUMBER OF POINT SOURCES/SINKS PRESENT IN THE FLOW MODEL =    41

 MAXIMUM STEPSIZE WHICH MEETS STABILITY CRITERION OF THE SINK & SOURCE TERM
 =  4506.    (WHEN MIN. R.F.=1)  AT K=   2, I=   5, J=   1

 MAXIMUM STEPSIZE WHICH MEETS STABILITY CRITERION OF THE DISPERSION TERM
 =  465.0    (WHEN MIN. R.F.=1)  AT K=   1, I=   5, J=   5


     1 CALLS TO GCG PACKAGE FOR TRANSPORT TIME STEP   1 IN FLOW TIME STEP  68 STRESS PERIOD   5
     2 TOTAL ITERATIONS
  MAXIMUM CONCENTRATION CHANGES FOR EACH ITERATION:
  MAX. CHANGE LAYER,ROW,COL MAX. CHANGE LAYER,ROW,COL MAX. CHANGE LAYER,ROW,COL MAX. CHANGE LAYER,ROW,COL MAX. CHANGE LAYER,ROW,COL
 ------------------------------------------------------------------------------------------------------------------------------------
   0.9288E-03 (  1,  5,  5)  0.1776E-14 (  2,  7,  3)


                                          ================================================
                                                         TIME STEP NO.  069
                                          ================================================

 FROM TIME =   369.00     TO    370.00    


                    "THKSAT          " FLOW TERMS FOR TIME STEP 69, STRESS PERIOD  5 READ UNFORMATTED ON UNIT 10
                    --------------------------------------------------------------------------------------------

                    "QXX             " FLOW TERMS FOR TIME STEP 69, STRESS PERIOD  5 READ UNFORMATTED ON UNIT 10
                    --------------------------------------------------------------------------------------------

                    "QYY             " FLOW TERMS FOR TIME STEP 69, STRESS PERIOD  5 READ UNFORMATTED ON UNIT 10
                    --------------------------------------------------------------------------------------------

                    "QZZ             " FLOW TERMS FOR TIME STEP 69, STRESS PERIOD  5 READ UNFORMATTED ON UNIT 10
                    --------------------------------------------------------------------------------------------

                    "STO             " FLOW TERMS FOR TIME STEP 69, STRESS PERIOD  5 READ UNFORMATTED ON UNIT 10
                    --------------------------------------------------------------------------------------------

 MAXIMUM STEPSIZE DURING WHICH ANY PARTICLE CANNOT MOVE MORE THAN ONE CELL
 =  799.6    (WHEN MIN. R.F.=1)  AT K=   2, I=   5, J=   5

 MAXIMUM STEPSIZE WHICH MEETS STABILITY CRITERION OF THE ADVECTION TERM
 (FOR PURE FINITE-DIFFERENCE OPTION, MIXELM=0) 
 =  244.9    (WHEN MIN. R.F.=1)  AT K=   2, I=   5, J=   5

                    "CNH             " FLOW TERMS FOR TIME STEP 69, STRESS PERIOD  5 READ UNFORMATTED ON UNIT 10
                    --------------------------------------------------------------------------------------------

                    "WEL             " FLOW TERMS FOR TIME STEP 69, STRESS PERIOD  5 READ UNFORMATTED ON UNIT 10
                    --------------------------------------------------------------------------------------------

                    "GHB             " FLOW TERMS FOR TIME STEP 69, STRESS PERIOD  5 READ UNFORMATTED ON UNIT 10
                    --------------------------------------------------------------------------------------------


 TOTAL NUMBER OF POINT SOURCES/SINKS PRESENT IN THE FLOW MODEL =    41

 MAXIMUM STEPSIZE WHICH MEETS STABILITY CRITERION OF THE SINK & SOURCE TERM
 =  4449.    (WHEN MIN. R.F.=1)  AT K=   2, I=   5, J=   1

 MAXIMUM STEPSIZE WHICH MEETS STABILITY CRITERION OF THE DISPERSION TERM
 =  463.8    (WHEN MIN. R.F.=1)  AT K=   1, I=   5, J=   5


     1 CALLS TO GCG PACKAGE FOR TRANSPORT TIME STEP   1 IN FLOW TIME STEP  69 STRESS PERIOD   5
     2 TOTAL ITERATIONS
  MAXIMUM CONCENTRATION CHANGES FOR EACH ITERATION:
  MAX. CHANGE LAYER,ROW,COL MAX. CHANGE LAYER,ROW,COL MAX. CHANGE LAYER,ROW,COL MAX. CHANGE LAYER,ROW,COL MAX. CHANGE LAYER,ROW,COL
 ------------------------------------------------------------------------------------------------------------------------------------
   0.9302E-03 (  1,  5,  5)  0.1776E-14 (  2,  7,  3)


                                          ================================================
                                                         TIME STEP NO.  070
                                          ================================================

 FROM TIME =   370.00     TO    371.00    


                    "THKSAT          " FLOW TERMS FOR TIME STEP 70, STRESS PERIOD  5 READ UNFORMATTED ON UNIT 10
                    --------------------------------------------------------------------------------------------

                    "QXX             " FLOW TERMS FOR TIME STEP 70, STRESS PERIOD  5 READ UNFORMATTED ON UNIT 10
                    --------------------------------------------------------------------------------------------

                    "QYY             " FLOW TERMS FOR TIME STEP 70, STRESS PERIOD  5 READ UNFORMATTED ON UNIT 10
                    --------------------------------------------------------------------------------------------

                    "QZZ             " FLOW TERMS FOR TIME STEP 70, STRESS PERIOD  5 READ UNFORMATTED ON UNIT 10
                    --------------------------------------------------------------------------------------------

                    "STO             " FLOW TERMS FOR TIME STEP 70, STRESS PERIOD  5 READ UNFORMATTED ON UNIT 10
                    --------------------------------------------------------------------------------------------

 MAXIMUM STEPSIZE DURING WHICH ANY PARTICLE CANNOT MOVE MORE THAN ONE CELL
 =  798.4    (WHEN MIN. R.F.=1)  AT K=   2, I=   5, J=   5

 MAXIMUM STEPSIZE WHICH MEETS STABILITY CRITERION OF THE ADVECTION TERM
 (FOR PURE FINITE-DIFFERENCE OPTION, MIXELM=0) 
 =  244.6    (WHEN MIN. R.F.=1)  AT K=   2, I=   5, J=   5

                    "CNH             " FLOW TERMS FOR TIME STEP 70, STRESS PERIOD  5 READ UNFORMATTED ON UNIT 10
                    --------------------------------------------------------------------------------------------

                    "WEL             " FLOW TERMS FOR TIME STEP 70, STRESS PERIOD  5 READ UNFORMATTED ON UNIT 10
                    --------------------------------------------------------------------------------------------

                    "GHB             " FLOW TERMS FOR TIME STEP 70, STRESS PERIOD  5 READ UNFORMATTED ON UNIT 10
                    --------------------------------------------------------------------------------------------


 TOTAL NUMBER OF POINT SOURCES/SINKS PRESENT IN THE FLOW MODEL =    41

 MAXIMUM STEPSIZE WHICH MEETS STABILITY CRITERION OF THE SINK & SOURCE TERM
 =  4395.    (WHEN MIN. R.F.=1)  AT K=   2, I=   5, J=   1

 MAXIMUM STEPSIZE WHICH MEETS STABILITY CRITERION OF THE DISPERSION TERM
 =  462.7    (WHEN MIN. R.F.=1)  AT K=   1, I=   5, J=   5


     1 CALLS TO GCG PACKAGE FOR TRANSPORT TIME STEP   1 IN FLOW TIME STEP  70 STRESS PERIOD   5
     2 TOTAL ITERATIONS
  MAXIMUM CONCENTRATION CHANGES FOR EACH ITERATION:
  MAX. CHANGE LAYER,ROW,COL MAX. CHANGE LAYER,ROW,COL MAX. CHANGE LAYER,ROW,COL MAX. CHANGE LAYER,ROW,COL MAX. CHANGE LAYER,ROW,COL
 ------------------------------------------------------------------------------------------------------------------------------------
   0.9319E-03 (  1,  5,  5)  0.1776E-14 (  2,  7,  3)


                                          ================================================
                                                         TIME STEP NO.  071
                                          ================================================

 FROM TIME =   371.00     TO    372.00    


                    "THKSAT          " FLOW TERMS FOR TIME STEP 71, STRESS PERIOD  5 READ UNFORMATTED ON UNIT 10
                    --------------------------------------------------------------------------------------------

                    "QXX             " FLOW TERMS FOR TIME STEP 71, STRESS PERIOD  5 READ UNFORMATTED ON UNIT 10
                    --------------------------------------------------------------------------------------------

                    "QYY             " FLOW TERMS FOR TIME STEP 71, STRESS PERIOD  5 READ UNFORMATTED ON UNIT 10
                    --------------------------------------------------------------------------------------------

                    "QZZ             " FLOW TERMS FOR TIME STEP 71, STRESS PERIOD  5 READ UNFORMATTED ON UNIT 10
                    --------------------------------------------------------------------------------------------

                    "STO             " FLOW TERMS FOR TIME STEP 71, STRESS PERIOD  5 READ UNFORMATTED ON UNIT 10
                    --------------------------------------------------------------------------------------------

 MAXIMUM STEPSIZE DURING WHICH ANY PARTICLE CANNOT MOVE MORE THAN ONE CELL
 =  797.2    (WHEN MIN. R.F.=1)  AT K=   2, I=   5, J=   5

 MAXIMUM STEPSIZE WHICH MEETS STABILITY CRITERION OF THE ADVECTION TERM
 (FOR PURE FINITE-DIFFERENCE OPTION, MIXELM=0) 
 =  244.2    (WHEN MIN. R.F.=1)  AT K=   2, I=   5, J=   5

                    "CNH             " FLOW TERMS FOR TIME STEP 71, STRESS PERIOD  5 READ UNFORMATTED ON UNIT 10
                    --------------------------------------------------------------------------------------------

                    "WEL             " FLOW TERMS FOR TIME STEP 71, STRESS PERIOD  5 READ UNFORMATTED ON UNIT 10
                    --------------------------------------------------------------------------------------------

                    "GHB             " FLOW TERMS FOR TIME STEP 71, STRESS PERIOD  5 READ UNFORMATTED ON UNIT 10
                    --------------------------------------------------------------------------------------------


 TOTAL NUMBER OF POINT SOURCES/SINKS PRESENT IN THE FLOW MODEL =    41

 MAXIMUM STEPSIZE WHICH MEETS STABILITY CRITERION OF THE SINK & SOURCE TERM
 =  4342.    (WHEN MIN. R.F.=1)  AT K=   2, I=   5, J=   1

 MAXIMUM STEPSIZE WHICH MEETS STABILITY CRITERION OF THE DISPERSION TERM
 =  461.6    (WHEN MIN. R.F.=1)  AT K=   1, I=   5, J=   5


     1 CALLS TO GCG PACKAGE FOR TRANSPORT TIME STEP   1 IN FLOW TIME STEP  71 STRESS PERIOD   5
     2 TOTAL ITERATIONS
  MAXIMUM CONCENTRATION CHANGES FOR EACH ITERATION:
  MAX. CHANGE LAYER,ROW,COL MAX. CHANGE LAYER,ROW,COL MAX. CHANGE LAYER,ROW,COL MAX. CHANGE LAYER,ROW,COL MAX. CHANGE LAYER,ROW,COL
 ------------------------------------------------------------------------------------------------------------------------------------
   0.9334E-03 (  1,  5,  5)  0.1776E-14 (  2,  7,  3)


                                          ================================================
                                                         TIME STEP NO.  072
                                          ================================================

 FROM TIME =   372.00     TO    373.00    


                    "THKSAT          " FLOW TERMS FOR TIME STEP 72, STRESS PERIOD  5 READ UNFORMATTED ON UNIT 10
                    --------------------------------------------------------------------------------------------

                    "QXX             " FLOW TERMS FOR TIME STEP 72, STRESS PERIOD  5 READ UNFORMATTED ON UNIT 10
                    --------------------------------------------------------------------------------------------

                    "QYY             " FLOW TERMS FOR TIME STEP 72, STRESS PERIOD  5 READ UNFORMATTED ON UNIT 10
                    --------------------------------------------------------------------------------------------

                    "QZZ             " FLOW TERMS FOR TIME STEP 72, STRESS PERIOD  5 READ UNFORMATTED ON UNIT 10
                    --------------------------------------------------------------------------------------------

                    "STO             " FLOW TERMS FOR TIME STEP 72, STRESS PERIOD  5 READ UNFORMATTED ON UNIT 10
                    --------------------------------------------------------------------------------------------

 MAXIMUM STEPSIZE DURING WHICH ANY PARTICLE CANNOT MOVE MORE THAN ONE CELL
 =  796.0    (WHEN MIN. R.F.=1)  AT K=   2, I=   5, J=   5

 MAXIMUM STEPSIZE WHICH MEETS STABILITY CRITERION OF THE ADVECTION TERM
 (FOR PURE FINITE-DIFFERENCE OPTION, MIXELM=0) 
 =  243.9    (WHEN MIN. R.F.=1)  AT K=   2, I=   5, J=   5

                    "CNH             " FLOW TERMS FOR TIME STEP 72, STRESS PERIOD  5 READ UNFORMATTED ON UNIT 10
                    --------------------------------------------------------------------------------------------

                    "WEL             " FLOW TERMS FOR TIME STEP 72, STRESS PERIOD  5 READ UNFORMATTED ON UNIT 10
                    --------------------------------------------------------------------------------------------

                    "GHB             " FLOW TERMS FOR TIME STEP 72, STRESS PERIOD  5 READ UNFORMATTED ON UNIT 10
                    --------------------------------------------------------------------------------------------


 TOTAL NUMBER OF POINT SOURCES/SINKS PRESENT IN THE FLOW MODEL =    41

 MAXIMUM STEPSIZE WHICH MEETS STABILITY CRITERION OF THE SINK & SOURCE TERM
 =  4291.    (WHEN MIN. R.F.=1)  AT K=   2, I=   5, J=   1

 MAXIMUM STEPSIZE WHICH MEETS STABILITY CRITERION OF THE DISPERSION TERM
 =  460.5    (WHEN MIN. R.F.=1)  AT K=   1, I=   5, J=   5


     1 CALLS TO GCG PACKAGE FOR TRANSPORT TIME STEP   1 IN FLOW TIME STEP  72 STRESS PERIOD   5
     2 TOTAL ITERATIONS
  MAXIMUM CONCENTRATION CHANGES FOR EACH ITERATION:
  MAX. CHANGE LAYER,ROW,COL MAX. CHANGE LAYER,ROW,COL MAX. CHANGE LAYER,ROW,COL MAX. CHANGE LAYER,ROW,COL MAX. CHANGE LAYER,ROW,COL
 ------------------------------------------------------------------------------------------------------------------------------------
   0.9346E-03 (  1,  5,  5)  0.1776E-14 (  2,  7,  3)


                                          ================================================
                                                         TIME STEP NO.  073
                                          ================================================

 FROM TIME =   373.00     TO    374.00    


                    "THKSAT          " FLOW TERMS FOR TIME STEP 73, STRESS PERIOD  5 READ UNFORMATTED ON UNIT 10
                    --------------------------------------------------------------------------------------------

                    "QXX             " FLOW TERMS FOR TIME STEP 73, STRESS PERIOD  5 READ UNFORMATTED ON UNIT 10
                    --------------------------------------------------------------------------------------------

                    "QYY             " FLOW TERMS FOR TIME STEP 73, STRESS PERIOD  5 READ UNFORMATTED ON UNIT 10
                    --------------------------------------------------------------------------------------------

                    "QZZ             " FLOW TERMS FOR TIME STEP 73, STRESS PERIOD  5 READ UNFORMATTED ON UNIT 10
                    --------------------------------------------------------------------------------------------

                    "STO             " FLOW TERMS FOR TIME STEP 73, STRESS PERIOD  5 READ UNFORMATTED ON UNIT 10
                    --------------------------------------------------------------------------------------------

 MAXIMUM STEPSIZE DURING WHICH ANY PARTICLE CANNOT MOVE MORE THAN ONE CELL
 =  794.9    (WHEN MIN. R.F.=1)  AT K=   2, I=   5, J=   5

 MAXIMUM STEPSIZE WHICH MEETS STABILITY CRITERION OF THE ADVECTION TERM
 (FOR PURE FINITE-DIFFERENCE OPTION, MIXELM=0) 
 =  243.5    (WHEN MIN. R.F.=1)  AT K=   2, I=   5, J=   5

                    "CNH             " FLOW TERMS FOR TIME STEP 73, STRESS PERIOD  5 READ UNFORMATTED ON UNIT 10
                    --------------------------------------------------------------------------------------------

                    "WEL             " FLOW TERMS FOR TIME STEP 73, STRESS PERIOD  5 READ UNFORMATTED ON UNIT 10
                    --------------------------------------------------------------------------------------------

                    "GHB             " FLOW TERMS FOR TIME STEP 73, STRESS PERIOD  5 READ UNFORMATTED ON UNIT 10
                    --------------------------------------------------------------------------------------------


 TOTAL NUMBER OF POINT SOURCES/SINKS PRESENT IN THE FLOW MODEL =    41

 MAXIMUM STEPSIZE WHICH MEETS STABILITY CRITERION OF THE SINK & SOURCE TERM
 =  4242.    (WHEN MIN. R.F.=1)  AT K=   2, I=   5, J=   1

 MAXIMUM STEPSIZE WHICH MEETS STABILITY CRITERION OF THE DISPERSION TERM
 =  459.5    (WHEN MIN. R.F.=1)  AT K=   1, I=   5, J=   5


     1 CALLS TO GCG PACKAGE FOR TRANSPORT TIME STEP   1 IN FLOW TIME STEP  73 STRESS PERIOD   5
     2 TOTAL ITERATIONS
  MAXIMUM CONCENTRATION CHANGES FOR EACH ITERATION:
  MAX. CHANGE LAYER,ROW,COL MAX. CHANGE LAYER,ROW,COL MAX. CHANGE LAYER,ROW,COL MAX. CHANGE LAYER,ROW,COL MAX. CHANGE LAYER,ROW,COL
 ------------------------------------------------------------------------------------------------------------------------------------
   0.9360E-03 (  1,  5,  5)  0.1776E-14 (  2,  7,  3)


                                          ================================================
                                                         TIME STEP NO.  074
                                          ================================================

 FROM TIME =   374.00     TO    375.00    


                    "THKSAT          " FLOW TERMS FOR TIME STEP 74, STRESS PERIOD  5 READ UNFORMATTED ON UNIT 10
                    --------------------------------------------------------------------------------------------

                    "QXX             " FLOW TERMS FOR TIME STEP 74, STRESS PERIOD  5 READ UNFORMATTED ON UNIT 10
                    --------------------------------------------------------------------------------------------

                    "QYY             " FLOW TERMS FOR TIME STEP 74, STRESS PERIOD  5 READ UNFORMATTED ON UNIT 10
                    --------------------------------------------------------------------------------------------

                    "QZZ             " FLOW TERMS FOR TIME STEP 74, STRESS PERIOD  5 READ UNFORMATTED ON UNIT 10
                    --------------------------------------------------------------------------------------------

                    "STO             " FLOW TERMS FOR TIME STEP 74, STRESS PERIOD  5 READ UNFORMATTED ON UNIT 10
                    --------------------------------------------------------------------------------------------

 MAXIMUM STEPSIZE DURING WHICH ANY PARTICLE CANNOT MOVE MORE THAN ONE CELL
 =  793.8    (WHEN MIN. R.F.=1)  AT K=   2, I=   5, J=   5

 MAXIMUM STEPSIZE WHICH MEETS STABILITY CRITERION OF THE ADVECTION TERM
 (FOR PURE FINITE-DIFFERENCE OPTION, MIXELM=0) 
 =  243.2    (WHEN MIN. R.F.=1)  AT K=   2, I=   5, J=   5

                    "CNH             " FLOW TERMS FOR TIME STEP 74, STRESS PERIOD  5 READ UNFORMATTED ON UNIT 10
                    --------------------------------------------------------------------------------------------

                    "WEL             " FLOW TERMS FOR TIME STEP 74, STRESS PERIOD  5 READ UNFORMATTED ON UNIT 10
                    --------------------------------------------------------------------------------------------

                    "GHB             " FLOW TERMS FOR TIME STEP 74, STRESS PERIOD  5 READ UNFORMATTED ON UNIT 10
                    --------------------------------------------------------------------------------------------


 TOTAL NUMBER OF POINT SOURCES/SINKS PRESENT IN THE FLOW MODEL =    41

 MAXIMUM STEPSIZE WHICH MEETS STABILITY CRITERION OF THE SINK & SOURCE TERM
 =  4194.    (WHEN MIN. R.F.=1)  AT K=   2, I=   5, J=   1

 MAXIMUM STEPSIZE WHICH MEETS STABILITY CRITERION OF THE DISPERSION TERM
 =  458.4    (WHEN MIN. R.F.=1)  AT K=   1, I=   5, J=   5


     1 CALLS TO GCG PACKAGE FOR TRANSPORT TIME STEP   1 IN FLOW TIME STEP  74 STRESS PERIOD   5
     2 TOTAL ITERATIONS
  MAXIMUM CONCENTRATION CHANGES FOR EACH ITERATION:
  MAX. CHANGE LAYER,ROW,COL MAX. CHANGE LAYER,ROW,COL MAX. CHANGE LAYER,ROW,COL MAX. CHANGE LAYER,ROW,COL MAX. CHANGE LAYER,ROW,COL
 ------------------------------------------------------------------------------------------------------------------------------------
   0.9375E-03 (  1,  5,  5)  0.1776E-14 (  2,  7,  3)


                                          ================================================
                                                         TIME STEP NO.  075
                                          ================================================

 FROM TIME =   375.00     TO    376.00    


                    "THKSAT          " FLOW TERMS FOR TIME STEP 75, STRESS PERIOD  5 READ UNFORMATTED ON UNIT 10
                    --------------------------------------------------------------------------------------------

                    "QXX             " FLOW TERMS FOR TIME STEP 75, STRESS PERIOD  5 READ UNFORMATTED ON UNIT 10
                    --------------------------------------------------------------------------------------------

                    "QYY             " FLOW TERMS FOR TIME STEP 75, STRESS PERIOD  5 READ UNFORMATTED ON UNIT 10
                    --------------------------------------------------------------------------------------------

                    "QZZ             " FLOW TERMS FOR TIME STEP 75, STRESS PERIOD  5 READ UNFORMATTED ON UNIT 10
                    --------------------------------------------------------------------------------------------

                    "STO             " FLOW TERMS FOR TIME STEP 75, STRESS PERIOD  5 READ UNFORMATTED ON UNIT 10
                    --------------------------------------------------------------------------------------------

 MAXIMUM STEPSIZE DURING WHICH ANY PARTICLE CANNOT MOVE MORE THAN ONE CELL
 =  792.7    (WHEN MIN. R.F.=1)  AT K=   2, I=   5, J=   5

 MAXIMUM STEPSIZE WHICH MEETS STABILITY CRITERION OF THE ADVECTION TERM
 (FOR PURE FINITE-DIFFERENCE OPTION, MIXELM=0) 
 =  242.9    (WHEN MIN. R.F.=1)  AT K=   2, I=   5, J=   5

                    "CNH             " FLOW TERMS FOR TIME STEP 75, STRESS PERIOD  5 READ UNFORMATTED ON UNIT 10
                    --------------------------------------------------------------------------------------------

                    "WEL             " FLOW TERMS FOR TIME STEP 75, STRESS PERIOD  5 READ UNFORMATTED ON UNIT 10
                    --------------------------------------------------------------------------------------------

                    "GHB             " FLOW TERMS FOR TIME STEP 75, STRESS PERIOD  5 READ UNFORMATTED ON UNIT 10
                    --------------------------------------------------------------------------------------------


 TOTAL NUMBER OF POINT SOURCES/SINKS PRESENT IN THE FLOW MODEL =    41

 MAXIMUM STEPSIZE WHICH MEETS STABILITY CRITERION OF THE SINK & SOURCE TERM
 =  4149.    (WHEN MIN. R.F.=1)  AT K=   2, I=   5, J=   1

 MAXIMUM STEPSIZE WHICH MEETS STABILITY CRITERION OF THE DISPERSION TERM
 =  457.4    (WHEN MIN. R.F.=1)  AT K=   1, I=   5, J=   5


     1 CALLS TO GCG PACKAGE FOR TRANSPORT TIME STEP   1 IN FLOW TIME STEP  75 STRESS PERIOD   5
     2 TOTAL ITERATIONS
  MAXIMUM CONCENTRATION CHANGES FOR EACH ITERATION:
  MAX. CHANGE LAYER,ROW,COL MAX. CHANGE LAYER,ROW,COL MAX. CHANGE LAYER,ROW,COL MAX. CHANGE LAYER,ROW,COL MAX. CHANGE LAYER,ROW,COL
 ------------------------------------------------------------------------------------------------------------------------------------
   0.9387E-03 (  1,  5,  5)  0.1776E-14 (  2,  7,  3)


                                          ================================================
                                                         TIME STEP NO.  076
                                          ================================================

 FROM TIME =   376.00     TO    377.00    


                    "THKSAT          " FLOW TERMS FOR TIME STEP 76, STRESS PERIOD  5 READ UNFORMATTED ON UNIT 10
                    --------------------------------------------------------------------------------------------

                    "QXX             " FLOW TERMS FOR TIME STEP 76, STRESS PERIOD  5 READ UNFORMATTED ON UNIT 10
                    --------------------------------------------------------------------------------------------

                    "QYY             " FLOW TERMS FOR TIME STEP 76, STRESS PERIOD  5 READ UNFORMATTED ON UNIT 10
                    --------------------------------------------------------------------------------------------

                    "QZZ             " FLOW TERMS FOR TIME STEP 76, STRESS PERIOD  5 READ UNFORMATTED ON UNIT 10
                    --------------------------------------------------------------------------------------------

                    "STO             " FLOW TERMS FOR TIME STEP 76, STRESS PERIOD  5 READ UNFORMATTED ON UNIT 10
                    --------------------------------------------------------------------------------------------

 MAXIMUM STEPSIZE DURING WHICH ANY PARTICLE CANNOT MOVE MORE THAN ONE CELL
 =  791.7    (WHEN MIN. R.F.=1)  AT K=   2, I=   5, J=   5

 MAXIMUM STEPSIZE WHICH MEETS STABILITY CRITERION OF THE ADVECTION TERM
 (FOR PURE FINITE-DIFFERENCE OPTION, MIXELM=0) 
 =  242.5    (WHEN MIN. R.F.=1)  AT K=   2, I=   5, J=   5

                    "CNH             " FLOW TERMS FOR TIME STEP 76, STRESS PERIOD  5 READ UNFORMATTED ON UNIT 10
                    --------------------------------------------------------------------------------------------

                    "WEL             " FLOW TERMS FOR TIME STEP 76, STRESS PERIOD  5 READ UNFORMATTED ON UNIT 10
                    --------------------------------------------------------------------------------------------

                    "GHB             " FLOW TERMS FOR TIME STEP 76, STRESS PERIOD  5 READ UNFORMATTED ON UNIT 10
                    --------------------------------------------------------------------------------------------


 TOTAL NUMBER OF POINT SOURCES/SINKS PRESENT IN THE FLOW MODEL =    41

 MAXIMUM STEPSIZE WHICH MEETS STABILITY CRITERION OF THE SINK & SOURCE TERM
 =  4104.    (WHEN MIN. R.F.=1)  AT K=   2, I=   5, J=   1

 MAXIMUM STEPSIZE WHICH MEETS STABILITY CRITERION OF THE DISPERSION TERM
 =  456.4    (WHEN MIN. R.F.=1)  AT K=   1, I=   5, J=   5


     1 CALLS TO GCG PACKAGE FOR TRANSPORT TIME STEP   1 IN FLOW TIME STEP  76 STRESS PERIOD   5
     2 TOTAL ITERATIONS
  MAXIMUM CONCENTRATION CHANGES FOR EACH ITERATION:
  MAX. CHANGE LAYER,ROW,COL MAX. CHANGE LAYER,ROW,COL MAX. CHANGE LAYER,ROW,COL MAX. CHANGE LAYER,ROW,COL MAX. CHANGE LAYER,ROW,COL
 ------------------------------------------------------------------------------------------------------------------------------------
   0.9398E-03 (  1,  5,  5)  0.1776E-14 (  2,  7,  3)


                                          ================================================
                                                         TIME STEP NO.  077
                                          ================================================

 FROM TIME =   377.00     TO    378.00    


                    "THKSAT          " FLOW TERMS FOR TIME STEP 77, STRESS PERIOD  5 READ UNFORMATTED ON UNIT 10
                    --------------------------------------------------------------------------------------------

                    "QXX             " FLOW TERMS FOR TIME STEP 77, STRESS PERIOD  5 READ UNFORMATTED ON UNIT 10
                    --------------------------------------------------------------------------------------------

                    "QYY             " FLOW TERMS FOR TIME STEP 77, STRESS PERIOD  5 READ UNFORMATTED ON UNIT 10
                    --------------------------------------------------------------------------------------------

                    "QZZ             " FLOW TERMS FOR TIME STEP 77, STRESS PERIOD  5 READ UNFORMATTED ON UNIT 10
                    --------------------------------------------------------------------------------------------

                    "STO             " FLOW TERMS FOR TIME STEP 77, STRESS PERIOD  5 READ UNFORMATTED ON UNIT 10
                    --------------------------------------------------------------------------------------------

 MAXIMUM STEPSIZE DURING WHICH ANY PARTICLE CANNOT MOVE MORE THAN ONE CELL
 =  790.6    (WHEN MIN. R.F.=1)  AT K=   2, I=   5, J=   5

 MAXIMUM STEPSIZE WHICH MEETS STABILITY CRITERION OF THE ADVECTION TERM
 (FOR PURE FINITE-DIFFERENCE OPTION, MIXELM=0) 
 =  242.2    (WHEN MIN. R.F.=1)  AT K=   2, I=   5, J=   5

                    "CNH             " FLOW TERMS FOR TIME STEP 77, STRESS PERIOD  5 READ UNFORMATTED ON UNIT 10
                    --------------------------------------------------------------------------------------------

                    "WEL             " FLOW TERMS FOR TIME STEP 77, STRESS PERIOD  5 READ UNFORMATTED ON UNIT 10
                    --------------------------------------------------------------------------------------------

                    "GHB             " FLOW TERMS FOR TIME STEP 77, STRESS PERIOD  5 READ UNFORMATTED ON UNIT 10
                    --------------------------------------------------------------------------------------------


 TOTAL NUMBER OF POINT SOURCES/SINKS PRESENT IN THE FLOW MODEL =    41

 MAXIMUM STEPSIZE WHICH MEETS STABILITY CRITERION OF THE SINK & SOURCE TERM
 =  4061.    (WHEN MIN. R.F.=1)  AT K=   2, I=   5, J=   1

 MAXIMUM STEPSIZE WHICH MEETS STABILITY CRITERION OF THE DISPERSION TERM
 =  455.5    (WHEN MIN. R.F.=1)  AT K=   1, I=   5, J=   5


     1 CALLS TO GCG PACKAGE FOR TRANSPORT TIME STEP   1 IN FLOW TIME STEP  77 STRESS PERIOD   5
     2 TOTAL ITERATIONS
  MAXIMUM CONCENTRATION CHANGES FOR EACH ITERATION:
  MAX. CHANGE LAYER,ROW,COL MAX. CHANGE LAYER,ROW,COL MAX. CHANGE LAYER,ROW,COL MAX. CHANGE LAYER,ROW,COL MAX. CHANGE LAYER,ROW,COL
 ------------------------------------------------------------------------------------------------------------------------------------
   0.9409E-03 (  1,  5,  5)  0.1776E-14 (  2,  7,  3)


                                          ================================================
                                                         TIME STEP NO.  078
                                          ================================================

 FROM TIME =   378.00     TO    379.00    


                    "THKSAT          " FLOW TERMS FOR TIME STEP 78, STRESS PERIOD  5 READ UNFORMATTED ON UNIT 10
                    --------------------------------------------------------------------------------------------

                    "QXX             " FLOW TERMS FOR TIME STEP 78, STRESS PERIOD  5 READ UNFORMATTED ON UNIT 10
                    --------------------------------------------------------------------------------------------

                    "QYY             " FLOW TERMS FOR TIME STEP 78, STRESS PERIOD  5 READ UNFORMATTED ON UNIT 10
                    --------------------------------------------------------------------------------------------

                    "QZZ             " FLOW TERMS FOR TIME STEP 78, STRESS PERIOD  5 READ UNFORMATTED ON UNIT 10
                    --------------------------------------------------------------------------------------------

                    "STO             " FLOW TERMS FOR TIME STEP 78, STRESS PERIOD  5 READ UNFORMATTED ON UNIT 10
                    --------------------------------------------------------------------------------------------

 MAXIMUM STEPSIZE DURING WHICH ANY PARTICLE CANNOT MOVE MORE THAN ONE CELL
 =  789.6    (WHEN MIN. R.F.=1)  AT K=   2, I=   5, J=   5

 MAXIMUM STEPSIZE WHICH MEETS STABILITY CRITERION OF THE ADVECTION TERM
 (FOR PURE FINITE-DIFFERENCE OPTION, MIXELM=0) 
 =  241.9    (WHEN MIN. R.F.=1)  AT K=   2, I=   5, J=   5

                    "CNH             " FLOW TERMS FOR TIME STEP 78, STRESS PERIOD  5 READ UNFORMATTED ON UNIT 10
                    --------------------------------------------------------------------------------------------

                    "WEL             " FLOW TERMS FOR TIME STEP 78, STRESS PERIOD  5 READ UNFORMATTED ON UNIT 10
                    --------------------------------------------------------------------------------------------

                    "GHB             " FLOW TERMS FOR TIME STEP 78, STRESS PERIOD  5 READ UNFORMATTED ON UNIT 10
                    --------------------------------------------------------------------------------------------


 TOTAL NUMBER OF POINT SOURCES/SINKS PRESENT IN THE FLOW MODEL =    41

 MAXIMUM STEPSIZE WHICH MEETS STABILITY CRITERION OF THE SINK & SOURCE TERM
 =  4020.    (WHEN MIN. R.F.=1)  AT K=   2, I=   5, J=   1

 MAXIMUM STEPSIZE WHICH MEETS STABILITY CRITERION OF THE DISPERSION TERM
 =  454.5    (WHEN MIN. R.F.=1)  AT K=   1, I=   5, J=   5


     1 CALLS TO GCG PACKAGE FOR TRANSPORT TIME STEP   1 IN FLOW TIME STEP  78 STRESS PERIOD   5
     2 TOTAL ITERATIONS
  MAXIMUM CONCENTRATION CHANGES FOR EACH ITERATION:
  MAX. CHANGE LAYER,ROW,COL MAX. CHANGE LAYER,ROW,COL MAX. CHANGE LAYER,ROW,COL MAX. CHANGE LAYER,ROW,COL MAX. CHANGE LAYER,ROW,COL
 ------------------------------------------------------------------------------------------------------------------------------------
   0.9421E-03 (  1,  5,  5)  0.1776E-14 (  2,  7,  3)


                                          ================================================
                                                         TIME STEP NO.  079
                                          ================================================

 FROM TIME =   379.00     TO    380.00    


                    "THKSAT          " FLOW TERMS FOR TIME STEP 79, STRESS PERIOD  5 READ UNFORMATTED ON UNIT 10
                    --------------------------------------------------------------------------------------------

                    "QXX             " FLOW TERMS FOR TIME STEP 79, STRESS PERIOD  5 READ UNFORMATTED ON UNIT 10
                    --------------------------------------------------------------------------------------------

                    "QYY             " FLOW TERMS FOR TIME STEP 79, STRESS PERIOD  5 READ UNFORMATTED ON UNIT 10
                    --------------------------------------------------------------------------------------------

                    "QZZ             " FLOW TERMS FOR TIME STEP 79, STRESS PERIOD  5 READ UNFORMATTED ON UNIT 10
                    --------------------------------------------------------------------------------------------

                    "STO             " FLOW TERMS FOR TIME STEP 79, STRESS PERIOD  5 READ UNFORMATTED ON UNIT 10
                    --------------------------------------------------------------------------------------------

 MAXIMUM STEPSIZE DURING WHICH ANY PARTICLE CANNOT MOVE MORE THAN ONE CELL
 =  788.6    (WHEN MIN. R.F.=1)  AT K=   2, I=   5, J=   5

 MAXIMUM STEPSIZE WHICH MEETS STABILITY CRITERION OF THE ADVECTION TERM
 (FOR PURE FINITE-DIFFERENCE OPTION, MIXELM=0) 
 =  241.6    (WHEN MIN. R.F.=1)  AT K=   2, I=   5, J=   5

                    "CNH             " FLOW TERMS FOR TIME STEP 79, STRESS PERIOD  5 READ UNFORMATTED ON UNIT 10
                    --------------------------------------------------------------------------------------------

                    "WEL             " FLOW TERMS FOR TIME STEP 79, STRESS PERIOD  5 READ UNFORMATTED ON UNIT 10
                    --------------------------------------------------------------------------------------------

                    "GHB             " FLOW TERMS FOR TIME STEP 79, STRESS PERIOD  5 READ UNFORMATTED ON UNIT 10
                    --------------------------------------------------------------------------------------------


 TOTAL NUMBER OF POINT SOURCES/SINKS PRESENT IN THE FLOW MODEL =    41

 MAXIMUM STEPSIZE WHICH MEETS STABILITY CRITERION OF THE SINK & SOURCE TERM
 =  3979.    (WHEN MIN. R.F.=1)  AT K=   2, I=   5, J=   1

 MAXIMUM STEPSIZE WHICH MEETS STABILITY CRITERION OF THE DISPERSION TERM
 =  453.6    (WHEN MIN. R.F.=1)  AT K=   1, I=   5, J=   5


     1 CALLS TO GCG PACKAGE FOR TRANSPORT TIME STEP   1 IN FLOW TIME STEP  79 STRESS PERIOD   5
     2 TOTAL ITERATIONS
  MAXIMUM CONCENTRATION CHANGES FOR EACH ITERATION:
  MAX. CHANGE LAYER,ROW,COL MAX. CHANGE LAYER,ROW,COL MAX. CHANGE LAYER,ROW,COL MAX. CHANGE LAYER,ROW,COL MAX. CHANGE LAYER,ROW,COL
 ------------------------------------------------------------------------------------------------------------------------------------
   0.9431E-03 (  1,  5,  5)  0.1776E-14 (  2,  7,  3)


                                          ================================================
                                                         TIME STEP NO.  080
                                          ================================================

 FROM TIME =   380.00     TO    381.00    


                    "THKSAT          " FLOW TERMS FOR TIME STEP 80, STRESS PERIOD  5 READ UNFORMATTED ON UNIT 10
                    --------------------------------------------------------------------------------------------

                    "QXX             " FLOW TERMS FOR TIME STEP 80, STRESS PERIOD  5 READ UNFORMATTED ON UNIT 10
                    --------------------------------------------------------------------------------------------

                    "QYY             " FLOW TERMS FOR TIME STEP 80, STRESS PERIOD  5 READ UNFORMATTED ON UNIT 10
                    --------------------------------------------------------------------------------------------

                    "QZZ             " FLOW TERMS FOR TIME STEP 80, STRESS PERIOD  5 READ UNFORMATTED ON UNIT 10
                    --------------------------------------------------------------------------------------------

                    "STO             " FLOW TERMS FOR TIME STEP 80, STRESS PERIOD  5 READ UNFORMATTED ON UNIT 10
                    --------------------------------------------------------------------------------------------

 MAXIMUM STEPSIZE DURING WHICH ANY PARTICLE CANNOT MOVE MORE THAN ONE CELL
 =  787.7    (WHEN MIN. R.F.=1)  AT K=   2, I=   5, J=   5

 MAXIMUM STEPSIZE WHICH MEETS STABILITY CRITERION OF THE ADVECTION TERM
 (FOR PURE FINITE-DIFFERENCE OPTION, MIXELM=0) 
 =  241.3    (WHEN MIN. R.F.=1)  AT K=   2, I=   5, J=   5

                    "CNH             " FLOW TERMS FOR TIME STEP 80, STRESS PERIOD  5 READ UNFORMATTED ON UNIT 10
                    --------------------------------------------------------------------------------------------

                    "WEL             " FLOW TERMS FOR TIME STEP 80, STRESS PERIOD  5 READ UNFORMATTED ON UNIT 10
                    --------------------------------------------------------------------------------------------

                    "GHB             " FLOW TERMS FOR TIME STEP 80, STRESS PERIOD  5 READ UNFORMATTED ON UNIT 10
                    --------------------------------------------------------------------------------------------


 TOTAL NUMBER OF POINT SOURCES/SINKS PRESENT IN THE FLOW MODEL =    41

 MAXIMUM STEPSIZE WHICH MEETS STABILITY CRITERION OF THE SINK & SOURCE TERM
 =  3940.    (WHEN MIN. R.F.=1)  AT K=   2, I=   5, J=   1

 MAXIMUM STEPSIZE WHICH MEETS STABILITY CRITERION OF THE DISPERSION TERM
 =  452.7    (WHEN MIN. R.F.=1)  AT K=   1, I=   5, J=   5


     1 CALLS TO GCG PACKAGE FOR TRANSPORT TIME STEP   1 IN FLOW TIME STEP  80 STRESS PERIOD   5
     2 TOTAL ITERATIONS
  MAXIMUM CONCENTRATION CHANGES FOR EACH ITERATION:
  MAX. CHANGE LAYER,ROW,COL MAX. CHANGE LAYER,ROW,COL MAX. CHANGE LAYER,ROW,COL MAX. CHANGE LAYER,ROW,COL MAX. CHANGE LAYER,ROW,COL
 ------------------------------------------------------------------------------------------------------------------------------------
   0.9441E-03 (  1,  5,  5)  0.1421E-13 (  1,  7,  3)


                                          ================================================
                                                         TIME STEP NO.  081
                                          ================================================

 FROM TIME =   381.00     TO    382.00    


                    "THKSAT          " FLOW TERMS FOR TIME STEP 81, STRESS PERIOD  5 READ UNFORMATTED ON UNIT 10
                    --------------------------------------------------------------------------------------------

                    "QXX             " FLOW TERMS FOR TIME STEP 81, STRESS PERIOD  5 READ UNFORMATTED ON UNIT 10
                    --------------------------------------------------------------------------------------------

                    "QYY             " FLOW TERMS FOR TIME STEP 81, STRESS PERIOD  5 READ UNFORMATTED ON UNIT 10
                    --------------------------------------------------------------------------------------------

                    "QZZ             " FLOW TERMS FOR TIME STEP 81, STRESS PERIOD  5 READ UNFORMATTED ON UNIT 10
                    --------------------------------------------------------------------------------------------

                    "STO             " FLOW TERMS FOR TIME STEP 81, STRESS PERIOD  5 READ UNFORMATTED ON UNIT 10
                    --------------------------------------------------------------------------------------------

 MAXIMUM STEPSIZE DURING WHICH ANY PARTICLE CANNOT MOVE MORE THAN ONE CELL
 =  786.7    (WHEN MIN. R.F.=1)  AT K=   2, I=   5, J=   5

 MAXIMUM STEPSIZE WHICH MEETS STABILITY CRITERION OF THE ADVECTION TERM
 (FOR PURE FINITE-DIFFERENCE OPTION, MIXELM=0) 
 =  241.0    (WHEN MIN. R.F.=1)  AT K=   2, I=   5, J=   5

                    "CNH             " FLOW TERMS FOR TIME STEP 81, STRESS PERIOD  5 READ UNFORMATTED ON UNIT 10
                    --------------------------------------------------------------------------------------------

                    "WEL             " FLOW TERMS FOR TIME STEP 81, STRESS PERIOD  5 READ UNFORMATTED ON UNIT 10
                    --------------------------------------------------------------------------------------------

                    "GHB             " FLOW TERMS FOR TIME STEP 81, STRESS PERIOD  5 READ UNFORMATTED ON UNIT 10
                    --------------------------------------------------------------------------------------------


 TOTAL NUMBER OF POINT SOURCES/SINKS PRESENT IN THE FLOW MODEL =    41

 MAXIMUM STEPSIZE WHICH MEETS STABILITY CRITERION OF THE SINK & SOURCE TERM
 =  3902.    (WHEN MIN. R.F.=1)  AT K=   2, I=   5, J=   1

 MAXIMUM STEPSIZE WHICH MEETS STABILITY CRITERION OF THE DISPERSION TERM
 =  451.8    (WHEN MIN. R.F.=1)  AT K=   1, I=   5, J=   5


     1 CALLS TO GCG PACKAGE FOR TRANSPORT TIME STEP   1 IN FLOW TIME STEP  81 STRESS PERIOD   5
     2 TOTAL ITERATIONS
  MAXIMUM CONCENTRATION CHANGES FOR EACH ITERATION:
  MAX. CHANGE LAYER,ROW,COL MAX. CHANGE LAYER,ROW,COL MAX. CHANGE LAYER,ROW,COL MAX. CHANGE LAYER,ROW,COL MAX. CHANGE LAYER,ROW,COL
 ------------------------------------------------------------------------------------------------------------------------------------
   0.9451E-03 (  1,  5,  5)  0.1421E-13 (  1,  7,  3)


                                          ================================================
                                                         TIME STEP NO.  082
                                          ================================================

 FROM TIME =   382.00     TO    383.00    


                    "THKSAT          " FLOW TERMS FOR TIME STEP 82, STRESS PERIOD  5 READ UNFORMATTED ON UNIT 10
                    --------------------------------------------------------------------------------------------

                    "QXX             " FLOW TERMS FOR TIME STEP 82, STRESS PERIOD  5 READ UNFORMATTED ON UNIT 10
                    --------------------------------------------------------------------------------------------

                    "QYY             " FLOW TERMS FOR TIME STEP 82, STRESS PERIOD  5 READ UNFORMATTED ON UNIT 10
                    --------------------------------------------------------------------------------------------

                    "QZZ             " FLOW TERMS FOR TIME STEP 82, STRESS PERIOD  5 READ UNFORMATTED ON UNIT 10
                    --------------------------------------------------------------------------------------------

                    "STO             " FLOW TERMS FOR TIME STEP 82, STRESS PERIOD  5 READ UNFORMATTED ON UNIT 10
                    --------------------------------------------------------------------------------------------

 MAXIMUM STEPSIZE DURING WHICH ANY PARTICLE CANNOT MOVE MORE THAN ONE CELL
 =  785.8    (WHEN MIN. R.F.=1)  AT K=   2, I=   5, J=   5

 MAXIMUM STEPSIZE WHICH MEETS STABILITY CRITERION OF THE ADVECTION TERM
 (FOR PURE FINITE-DIFFERENCE OPTION, MIXELM=0) 
 =  240.8    (WHEN MIN. R.F.=1)  AT K=   2, I=   5, J=   5

                    "CNH             " FLOW TERMS FOR TIME STEP 82, STRESS PERIOD  5 READ UNFORMATTED ON UNIT 10
                    --------------------------------------------------------------------------------------------

                    "WEL             " FLOW TERMS FOR TIME STEP 82, STRESS PERIOD  5 READ UNFORMATTED ON UNIT 10
                    --------------------------------------------------------------------------------------------

                    "GHB             " FLOW TERMS FOR TIME STEP 82, STRESS PERIOD  5 READ UNFORMATTED ON UNIT 10
                    --------------------------------------------------------------------------------------------


 TOTAL NUMBER OF POINT SOURCES/SINKS PRESENT IN THE FLOW MODEL =    41

 MAXIMUM STEPSIZE WHICH MEETS STABILITY CRITERION OF THE SINK & SOURCE TERM
 =  3865.    (WHEN MIN. R.F.=1)  AT K=   2, I=   5, J=   1

 MAXIMUM STEPSIZE WHICH MEETS STABILITY CRITERION OF THE DISPERSION TERM
 =  450.9    (WHEN MIN. R.F.=1)  AT K=   1, I=   5, J=   5


     1 CALLS TO GCG PACKAGE FOR TRANSPORT TIME STEP   1 IN FLOW TIME STEP  82 STRESS PERIOD   5
     2 TOTAL ITERATIONS
  MAXIMUM CONCENTRATION CHANGES FOR EACH ITERATION:
  MAX. CHANGE LAYER,ROW,COL MAX. CHANGE LAYER,ROW,COL MAX. CHANGE LAYER,ROW,COL MAX. CHANGE LAYER,ROW,COL MAX. CHANGE LAYER,ROW,COL
 ------------------------------------------------------------------------------------------------------------------------------------
   0.9464E-03 (  1,  5,  5)  0.1421E-13 (  1,  7,  3)


                                          ================================================
                                                         TIME STEP NO.  083
                                          ================================================

 FROM TIME =   383.00     TO    384.00    


                    "THKSAT          " FLOW TERMS FOR TIME STEP 83, STRESS PERIOD  5 READ UNFORMATTED ON UNIT 10
                    --------------------------------------------------------------------------------------------

                    "QXX             " FLOW TERMS FOR TIME STEP 83, STRESS PERIOD  5 READ UNFORMATTED ON UNIT 10
                    --------------------------------------------------------------------------------------------

                    "QYY             " FLOW TERMS FOR TIME STEP 83, STRESS PERIOD  5 READ UNFORMATTED ON UNIT 10
                    --------------------------------------------------------------------------------------------

                    "QZZ             " FLOW TERMS FOR TIME STEP 83, STRESS PERIOD  5 READ UNFORMATTED ON UNIT 10
                    --------------------------------------------------------------------------------------------

                    "STO             " FLOW TERMS FOR TIME STEP 83, STRESS PERIOD  5 READ UNFORMATTED ON UNIT 10
                    --------------------------------------------------------------------------------------------

 MAXIMUM STEPSIZE DURING WHICH ANY PARTICLE CANNOT MOVE MORE THAN ONE CELL
 =  784.9    (WHEN MIN. R.F.=1)  AT K=   2, I=   5, J=   5

 MAXIMUM STEPSIZE WHICH MEETS STABILITY CRITERION OF THE ADVECTION TERM
 (FOR PURE FINITE-DIFFERENCE OPTION, MIXELM=0) 
 =  240.5    (WHEN MIN. R.F.=1)  AT K=   2, I=   5, J=   5

                    "CNH             " FLOW TERMS FOR TIME STEP 83, STRESS PERIOD  5 READ UNFORMATTED ON UNIT 10
                    --------------------------------------------------------------------------------------------

                    "WEL             " FLOW TERMS FOR TIME STEP 83, STRESS PERIOD  5 READ UNFORMATTED ON UNIT 10
                    --------------------------------------------------------------------------------------------

                    "GHB             " FLOW TERMS FOR TIME STEP 83, STRESS PERIOD  5 READ UNFORMATTED ON UNIT 10
                    --------------------------------------------------------------------------------------------


 TOTAL NUMBER OF POINT SOURCES/SINKS PRESENT IN THE FLOW MODEL =    41

 MAXIMUM STEPSIZE WHICH MEETS STABILITY CRITERION OF THE SINK & SOURCE TERM
 =  3830.    (WHEN MIN. R.F.=1)  AT K=   2, I=   5, J=   1

 MAXIMUM STEPSIZE WHICH MEETS STABILITY CRITERION OF THE DISPERSION TERM
 =  450.0    (WHEN MIN. R.F.=1)  AT K=   1, I=   5, J=   5


     1 CALLS TO GCG PACKAGE FOR TRANSPORT TIME STEP   1 IN FLOW TIME STEP  83 STRESS PERIOD   5
     2 TOTAL ITERATIONS
  MAXIMUM CONCENTRATION CHANGES FOR EACH ITERATION:
  MAX. CHANGE LAYER,ROW,COL MAX. CHANGE LAYER,ROW,COL MAX. CHANGE LAYER,ROW,COL MAX. CHANGE LAYER,ROW,COL MAX. CHANGE LAYER,ROW,COL
 ------------------------------------------------------------------------------------------------------------------------------------
   0.9474E-03 (  1,  5,  5)  0.1421E-13 (  1,  7,  3)


                                          ================================================
                                                         TIME STEP NO.  084
                                          ================================================

 FROM TIME =   384.00     TO    385.00    


                    "THKSAT          " FLOW TERMS FOR TIME STEP 84, STRESS PERIOD  5 READ UNFORMATTED ON UNIT 10
                    --------------------------------------------------------------------------------------------

                    "QXX             " FLOW TERMS FOR TIME STEP 84, STRESS PERIOD  5 READ UNFORMATTED ON UNIT 10
                    --------------------------------------------------------------------------------------------

                    "QYY             " FLOW TERMS FOR TIME STEP 84, STRESS PERIOD  5 READ UNFORMATTED ON UNIT 10
                    --------------------------------------------------------------------------------------------

                    "QZZ             " FLOW TERMS FOR TIME STEP 84, STRESS PERIOD  5 READ UNFORMATTED ON UNIT 10
                    --------------------------------------------------------------------------------------------

                    "STO             " FLOW TERMS FOR TIME STEP 84, STRESS PERIOD  5 READ UNFORMATTED ON UNIT 10
                    --------------------------------------------------------------------------------------------

 MAXIMUM STEPSIZE DURING WHICH ANY PARTICLE CANNOT MOVE MORE THAN ONE CELL
 =  784.0    (WHEN MIN. R.F.=1)  AT K=   2, I=   5, J=   5

 MAXIMUM STEPSIZE WHICH MEETS STABILITY CRITERION OF THE ADVECTION TERM
 (FOR PURE FINITE-DIFFERENCE OPTION, MIXELM=0) 
 =  240.2    (WHEN MIN. R.F.=1)  AT K=   2, I=   5, J=   5

                    "CNH             " FLOW TERMS FOR TIME STEP 84, STRESS PERIOD  5 READ UNFORMATTED ON UNIT 10
                    --------------------------------------------------------------------------------------------

                    "WEL             " FLOW TERMS FOR TIME STEP 84, STRESS PERIOD  5 READ UNFORMATTED ON UNIT 10
                    --------------------------------------------------------------------------------------------

                    "GHB             " FLOW TERMS FOR TIME STEP 84, STRESS PERIOD  5 READ UNFORMATTED ON UNIT 10
                    --------------------------------------------------------------------------------------------


 TOTAL NUMBER OF POINT SOURCES/SINKS PRESENT IN THE FLOW MODEL =    41

 MAXIMUM STEPSIZE WHICH MEETS STABILITY CRITERION OF THE SINK & SOURCE TERM
 =  3795.    (WHEN MIN. R.F.=1)  AT K=   2, I=   5, J=   1

 MAXIMUM STEPSIZE WHICH MEETS STABILITY CRITERION OF THE DISPERSION TERM
 =  449.2    (WHEN MIN. R.F.=1)  AT K=   1, I=   5, J=   5


     1 CALLS TO GCG PACKAGE FOR TRANSPORT TIME STEP   1 IN FLOW TIME STEP  84 STRESS PERIOD   5
     2 TOTAL ITERATIONS
  MAXIMUM CONCENTRATION CHANGES FOR EACH ITERATION:
  MAX. CHANGE LAYER,ROW,COL MAX. CHANGE LAYER,ROW,COL MAX. CHANGE LAYER,ROW,COL MAX. CHANGE LAYER,ROW,COL MAX. CHANGE LAYER,ROW,COL
 ------------------------------------------------------------------------------------------------------------------------------------
   0.9484E-03 (  1,  5,  5)  0.7105E-14 (  1,  7,  3)


                                          ================================================
                                                         TIME STEP NO.  085
                                          ================================================

 FROM TIME =   385.00     TO    386.00    


                    "THKSAT          " FLOW TERMS FOR TIME STEP 85, STRESS PERIOD  5 READ UNFORMATTED ON UNIT 10
                    --------------------------------------------------------------------------------------------

                    "QXX             " FLOW TERMS FOR TIME STEP 85, STRESS PERIOD  5 READ UNFORMATTED ON UNIT 10
                    --------------------------------------------------------------------------------------------

                    "QYY             " FLOW TERMS FOR TIME STEP 85, STRESS PERIOD  5 READ UNFORMATTED ON UNIT 10
                    --------------------------------------------------------------------------------------------

                    "QZZ             " FLOW TERMS FOR TIME STEP 85, STRESS PERIOD  5 READ UNFORMATTED ON UNIT 10
                    --------------------------------------------------------------------------------------------

                    "STO             " FLOW TERMS FOR TIME STEP 85, STRESS PERIOD  5 READ UNFORMATTED ON UNIT 10
                    --------------------------------------------------------------------------------------------

 MAXIMUM STEPSIZE DURING WHICH ANY PARTICLE CANNOT MOVE MORE THAN ONE CELL
 =  783.1    (WHEN MIN. R.F.=1)  AT K=   2, I=   5, J=   5

 MAXIMUM STEPSIZE WHICH MEETS STABILITY CRITERION OF THE ADVECTION TERM
 (FOR PURE FINITE-DIFFERENCE OPTION, MIXELM=0) 
 =  239.9    (WHEN MIN. R.F.=1)  AT K=   2, I=   5, J=   5

                    "CNH             " FLOW TERMS FOR TIME STEP 85, STRESS PERIOD  5 READ UNFORMATTED ON UNIT 10
                    --------------------------------------------------------------------------------------------

                    "WEL             " FLOW TERMS FOR TIME STEP 85, STRESS PERIOD  5 READ UNFORMATTED ON UNIT 10
                    --------------------------------------------------------------------------------------------

                    "GHB             " FLOW TERMS FOR TIME STEP 85, STRESS PERIOD  5 READ UNFORMATTED ON UNIT 10
                    --------------------------------------------------------------------------------------------


 TOTAL NUMBER OF POINT SOURCES/SINKS PRESENT IN THE FLOW MODEL =    41

 MAXIMUM STEPSIZE WHICH MEETS STABILITY CRITERION OF THE SINK & SOURCE TERM
 =  3762.    (WHEN MIN. R.F.=1)  AT K=   2, I=   5, J=   1

 MAXIMUM STEPSIZE WHICH MEETS STABILITY CRITERION OF THE DISPERSION TERM
 =  448.3    (WHEN MIN. R.F.=1)  AT K=   1, I=   5, J=   5


     1 CALLS TO GCG PACKAGE FOR TRANSPORT TIME STEP   1 IN FLOW TIME STEP  85 STRESS PERIOD   5
     2 TOTAL ITERATIONS
  MAXIMUM CONCENTRATION CHANGES FOR EACH ITERATION:
  MAX. CHANGE LAYER,ROW,COL MAX. CHANGE LAYER,ROW,COL MAX. CHANGE LAYER,ROW,COL MAX. CHANGE LAYER,ROW,COL MAX. CHANGE LAYER,ROW,COL
 ------------------------------------------------------------------------------------------------------------------------------------
   0.9490E-03 (  1,  5,  5)  0.7105E-14 (  1,  7,  3)


                                          ================================================
                                                         TIME STEP NO.  086
                                          ================================================

 FROM TIME =   386.00     TO    387.00    


                    "THKSAT          " FLOW TERMS FOR TIME STEP 86, STRESS PERIOD  5 READ UNFORMATTED ON UNIT 10
                    --------------------------------------------------------------------------------------------

                    "QXX             " FLOW TERMS FOR TIME STEP 86, STRESS PERIOD  5 READ UNFORMATTED ON UNIT 10
                    --------------------------------------------------------------------------------------------

                    "QYY             " FLOW TERMS FOR TIME STEP 86, STRESS PERIOD  5 READ UNFORMATTED ON UNIT 10
                    --------------------------------------------------------------------------------------------

                    "QZZ             " FLOW TERMS FOR TIME STEP 86, STRESS PERIOD  5 READ UNFORMATTED ON UNIT 10
                    --------------------------------------------------------------------------------------------

                    "STO             " FLOW TERMS FOR TIME STEP 86, STRESS PERIOD  5 READ UNFORMATTED ON UNIT 10
                    --------------------------------------------------------------------------------------------

 MAXIMUM STEPSIZE DURING WHICH ANY PARTICLE CANNOT MOVE MORE THAN ONE CELL
 =  782.2    (WHEN MIN. R.F.=1)  AT K=   2, I=   5, J=   5

 MAXIMUM STEPSIZE WHICH MEETS STABILITY CRITERION OF THE ADVECTION TERM
 (FOR PURE FINITE-DIFFERENCE OPTION, MIXELM=0) 
 =  239.7    (WHEN MIN. R.F.=1)  AT K=   2, I=   5, J=   5

                    "CNH             " FLOW TERMS FOR TIME STEP 86, STRESS PERIOD  5 READ UNFORMATTED ON UNIT 10
                    --------------------------------------------------------------------------------------------

                    "WEL             " FLOW TERMS FOR TIME STEP 86, STRESS PERIOD  5 READ UNFORMATTED ON UNIT 10
                    --------------------------------------------------------------------------------------------

                    "GHB             " FLOW TERMS FOR TIME STEP 86, STRESS PERIOD  5 READ UNFORMATTED ON UNIT 10
                    --------------------------------------------------------------------------------------------


 TOTAL NUMBER OF POINT SOURCES/SINKS PRESENT IN THE FLOW MODEL =    41

 MAXIMUM STEPSIZE WHICH MEETS STABILITY CRITERION OF THE SINK & SOURCE TERM
 =  3729.    (WHEN MIN. R.F.=1)  AT K=   2, I=   5, J=   1

 MAXIMUM STEPSIZE WHICH MEETS STABILITY CRITERION OF THE DISPERSION TERM
 =  447.5    (WHEN MIN. R.F.=1)  AT K=   1, I=   5, J=   5


     1 CALLS TO GCG PACKAGE FOR TRANSPORT TIME STEP   1 IN FLOW TIME STEP  86 STRESS PERIOD   5
     2 TOTAL ITERATIONS
  MAXIMUM CONCENTRATION CHANGES FOR EACH ITERATION:
  MAX. CHANGE LAYER,ROW,COL MAX. CHANGE LAYER,ROW,COL MAX. CHANGE LAYER,ROW,COL MAX. CHANGE LAYER,ROW,COL MAX. CHANGE LAYER,ROW,COL
 ------------------------------------------------------------------------------------------------------------------------------------
   0.9518E-03 (  1,  5,  5)  0.7105E-14 (  1,  7,  3)


                                          ================================================
                                                         TIME STEP NO.  087
                                          ================================================

 FROM TIME =   387.00     TO    388.00    


                    "THKSAT          " FLOW TERMS FOR TIME STEP 87, STRESS PERIOD  5 READ UNFORMATTED ON UNIT 10
                    --------------------------------------------------------------------------------------------

                    "QXX             " FLOW TERMS FOR TIME STEP 87, STRESS PERIOD  5 READ UNFORMATTED ON UNIT 10
                    --------------------------------------------------------------------------------------------

                    "QYY             " FLOW TERMS FOR TIME STEP 87, STRESS PERIOD  5 READ UNFORMATTED ON UNIT 10
                    --------------------------------------------------------------------------------------------

                    "QZZ             " FLOW TERMS FOR TIME STEP 87, STRESS PERIOD  5 READ UNFORMATTED ON UNIT 10
                    --------------------------------------------------------------------------------------------

                    "STO             " FLOW TERMS FOR TIME STEP 87, STRESS PERIOD  5 READ UNFORMATTED ON UNIT 10
                    --------------------------------------------------------------------------------------------

 MAXIMUM STEPSIZE DURING WHICH ANY PARTICLE CANNOT MOVE MORE THAN ONE CELL
 =  781.4    (WHEN MIN. R.F.=1)  AT K=   2, I=   5, J=   5

 MAXIMUM STEPSIZE WHICH MEETS STABILITY CRITERION OF THE ADVECTION TERM
 (FOR PURE FINITE-DIFFERENCE OPTION, MIXELM=0) 
 =  239.4    (WHEN MIN. R.F.=1)  AT K=   2, I=   5, J=   5

                    "CNH             " FLOW TERMS FOR TIME STEP 87, STRESS PERIOD  5 READ UNFORMATTED ON UNIT 10
                    --------------------------------------------------------------------------------------------

                    "WEL             " FLOW TERMS FOR TIME STEP 87, STRESS PERIOD  5 READ UNFORMATTED ON UNIT 10
                    --------------------------------------------------------------------------------------------

                    "GHB             " FLOW TERMS FOR TIME STEP 87, STRESS PERIOD  5 READ UNFORMATTED ON UNIT 10
                    --------------------------------------------------------------------------------------------


 TOTAL NUMBER OF POINT SOURCES/SINKS PRESENT IN THE FLOW MODEL =    41

 MAXIMUM STEPSIZE WHICH MEETS STABILITY CRITERION OF THE SINK & SOURCE TERM
 =  3697.    (WHEN MIN. R.F.=1)  AT K=   2, I=   5, J=   1

 MAXIMUM STEPSIZE WHICH MEETS STABILITY CRITERION OF THE DISPERSION TERM
 =  446.7    (WHEN MIN. R.F.=1)  AT K=   1, I=   5, J=   5


     1 CALLS TO GCG PACKAGE FOR TRANSPORT TIME STEP   1 IN FLOW TIME STEP  87 STRESS PERIOD   5
     2 TOTAL ITERATIONS
  MAXIMUM CONCENTRATION CHANGES FOR EACH ITERATION:
  MAX. CHANGE LAYER,ROW,COL MAX. CHANGE LAYER,ROW,COL MAX. CHANGE LAYER,ROW,COL MAX. CHANGE LAYER,ROW,COL MAX. CHANGE LAYER,ROW,COL
 ------------------------------------------------------------------------------------------------------------------------------------
   0.9527E-03 (  1,  5,  5)  0.7105E-14 (  1,  7,  3)


                                          ================================================
                                                         TIME STEP NO.  088
                                          ================================================

 FROM TIME =   388.00     TO    389.00    


                    "THKSAT          " FLOW TERMS FOR TIME STEP 88, STRESS PERIOD  5 READ UNFORMATTED ON UNIT 10
                    --------------------------------------------------------------------------------------------

                    "QXX             " FLOW TERMS FOR TIME STEP 88, STRESS PERIOD  5 READ UNFORMATTED ON UNIT 10
                    --------------------------------------------------------------------------------------------

                    "QYY             " FLOW TERMS FOR TIME STEP 88, STRESS PERIOD  5 READ UNFORMATTED ON UNIT 10
                    --------------------------------------------------------------------------------------------

                    "QZZ             " FLOW TERMS FOR TIME STEP 88, STRESS PERIOD  5 READ UNFORMATTED ON UNIT 10
                    --------------------------------------------------------------------------------------------

                    "STO             " FLOW TERMS FOR TIME STEP 88, STRESS PERIOD  5 READ UNFORMATTED ON UNIT 10
                    --------------------------------------------------------------------------------------------

 MAXIMUM STEPSIZE DURING WHICH ANY PARTICLE CANNOT MOVE MORE THAN ONE CELL
 =  780.5    (WHEN MIN. R.F.=1)  AT K=   2, I=   5, J=   5

 MAXIMUM STEPSIZE WHICH MEETS STABILITY CRITERION OF THE ADVECTION TERM
 (FOR PURE FINITE-DIFFERENCE OPTION, MIXELM=0) 
 =  239.2    (WHEN MIN. R.F.=1)  AT K=   2, I=   5, J=   5

                    "CNH             " FLOW TERMS FOR TIME STEP 88, STRESS PERIOD  5 READ UNFORMATTED ON UNIT 10
                    --------------------------------------------------------------------------------------------

                    "WEL             " FLOW TERMS FOR TIME STEP 88, STRESS PERIOD  5 READ UNFORMATTED ON UNIT 10
                    --------------------------------------------------------------------------------------------

                    "GHB             " FLOW TERMS FOR TIME STEP 88, STRESS PERIOD  5 READ UNFORMATTED ON UNIT 10
                    --------------------------------------------------------------------------------------------


 TOTAL NUMBER OF POINT SOURCES/SINKS PRESENT IN THE FLOW MODEL =    41

 MAXIMUM STEPSIZE WHICH MEETS STABILITY CRITERION OF THE SINK & SOURCE TERM
 =  3666.    (WHEN MIN. R.F.=1)  AT K=   2, I=   5, J=   1

 MAXIMUM STEPSIZE WHICH MEETS STABILITY CRITERION OF THE DISPERSION TERM
 =  445.9    (WHEN MIN. R.F.=1)  AT K=   1, I=   5, J=   5


     1 CALLS TO GCG PACKAGE FOR TRANSPORT TIME STEP   1 IN FLOW TIME STEP  88 STRESS PERIOD   5
     2 TOTAL ITERATIONS
  MAXIMUM CONCENTRATION CHANGES FOR EACH ITERATION:
  MAX. CHANGE LAYER,ROW,COL MAX. CHANGE LAYER,ROW,COL MAX. CHANGE LAYER,ROW,COL MAX. CHANGE LAYER,ROW,COL MAX. CHANGE LAYER,ROW,COL
 ------------------------------------------------------------------------------------------------------------------------------------
   0.9536E-03 (  1,  5,  5)  0.7105E-14 (  1,  7,  3)


                                          ================================================
                                                         TIME STEP NO.  089
                                          ================================================

 FROM TIME =   389.00     TO    390.00    


                    "THKSAT          " FLOW TERMS FOR TIME STEP 89, STRESS PERIOD  5 READ UNFORMATTED ON UNIT 10
                    --------------------------------------------------------------------------------------------

                    "QXX             " FLOW TERMS FOR TIME STEP 89, STRESS PERIOD  5 READ UNFORMATTED ON UNIT 10
                    --------------------------------------------------------------------------------------------

                    "QYY             " FLOW TERMS FOR TIME STEP 89, STRESS PERIOD  5 READ UNFORMATTED ON UNIT 10
                    --------------------------------------------------------------------------------------------

                    "QZZ             " FLOW TERMS FOR TIME STEP 89, STRESS PERIOD  5 READ UNFORMATTED ON UNIT 10
                    --------------------------------------------------------------------------------------------

                    "STO             " FLOW TERMS FOR TIME STEP 89, STRESS PERIOD  5 READ UNFORMATTED ON UNIT 10
                    --------------------------------------------------------------------------------------------

 MAXIMUM STEPSIZE DURING WHICH ANY PARTICLE CANNOT MOVE MORE THAN ONE CELL
 =  779.7    (WHEN MIN. R.F.=1)  AT K=   2, I=   5, J=   5

 MAXIMUM STEPSIZE WHICH MEETS STABILITY CRITERION OF THE ADVECTION TERM
 (FOR PURE FINITE-DIFFERENCE OPTION, MIXELM=0) 
 =  238.9    (WHEN MIN. R.F.=1)  AT K=   2, I=   5, J=   5

                    "CNH             " FLOW TERMS FOR TIME STEP 89, STRESS PERIOD  5 READ UNFORMATTED ON UNIT 10
                    --------------------------------------------------------------------------------------------

                    "WEL             " FLOW TERMS FOR TIME STEP 89, STRESS PERIOD  5 READ UNFORMATTED ON UNIT 10
                    --------------------------------------------------------------------------------------------

                    "GHB             " FLOW TERMS FOR TIME STEP 89, STRESS PERIOD  5 READ UNFORMATTED ON UNIT 10
                    --------------------------------------------------------------------------------------------


 TOTAL NUMBER OF POINT SOURCES/SINKS PRESENT IN THE FLOW MODEL =    41

 MAXIMUM STEPSIZE WHICH MEETS STABILITY CRITERION OF THE SINK & SOURCE TERM
 =  3637.    (WHEN MIN. R.F.=1)  AT K=   2, I=   5, J=   1

 MAXIMUM STEPSIZE WHICH MEETS STABILITY CRITERION OF THE DISPERSION TERM
 =  445.1    (WHEN MIN. R.F.=1)  AT K=   1, I=   5, J=   5


     1 CALLS TO GCG PACKAGE FOR TRANSPORT TIME STEP   1 IN FLOW TIME STEP  89 STRESS PERIOD   5
     2 TOTAL ITERATIONS
  MAXIMUM CONCENTRATION CHANGES FOR EACH ITERATION:
  MAX. CHANGE LAYER,ROW,COL MAX. CHANGE LAYER,ROW,COL MAX. CHANGE LAYER,ROW,COL MAX. CHANGE LAYER,ROW,COL MAX. CHANGE LAYER,ROW,COL
 ------------------------------------------------------------------------------------------------------------------------------------
   0.9544E-03 (  1,  5,  5)  0.7105E-14 (  1,  7,  3)


                                          ================================================
                                                         TIME STEP NO.  090
                                          ================================================

 FROM TIME =   390.00     TO    391.00    


                    "THKSAT          " FLOW TERMS FOR TIME STEP 90, STRESS PERIOD  5 READ UNFORMATTED ON UNIT 10
                    --------------------------------------------------------------------------------------------

                    "QXX             " FLOW TERMS FOR TIME STEP 90, STRESS PERIOD  5 READ UNFORMATTED ON UNIT 10
                    --------------------------------------------------------------------------------------------

                    "QYY             " FLOW TERMS FOR TIME STEP 90, STRESS PERIOD  5 READ UNFORMATTED ON UNIT 10
                    --------------------------------------------------------------------------------------------

                    "QZZ             " FLOW TERMS FOR TIME STEP 90, STRESS PERIOD  5 READ UNFORMATTED ON UNIT 10
                    --------------------------------------------------------------------------------------------

                    "STO             " FLOW TERMS FOR TIME STEP 90, STRESS PERIOD  5 READ UNFORMATTED ON UNIT 10
                    --------------------------------------------------------------------------------------------

 MAXIMUM STEPSIZE DURING WHICH ANY PARTICLE CANNOT MOVE MORE THAN ONE CELL
 =  778.9    (WHEN MIN. R.F.=1)  AT K=   2, I=   5, J=   5

 MAXIMUM STEPSIZE WHICH MEETS STABILITY CRITERION OF THE ADVECTION TERM
 (FOR PURE FINITE-DIFFERENCE OPTION, MIXELM=0) 
 =  238.7    (WHEN MIN. R.F.=1)  AT K=   2, I=   5, J=   5

                    "CNH             " FLOW TERMS FOR TIME STEP 90, STRESS PERIOD  5 READ UNFORMATTED ON UNIT 10
                    --------------------------------------------------------------------------------------------

                    "WEL             " FLOW TERMS FOR TIME STEP 90, STRESS PERIOD  5 READ UNFORMATTED ON UNIT 10
                    --------------------------------------------------------------------------------------------

                    "GHB             " FLOW TERMS FOR TIME STEP 90, STRESS PERIOD  5 READ UNFORMATTED ON UNIT 10
                    --------------------------------------------------------------------------------------------


 TOTAL NUMBER OF POINT SOURCES/SINKS PRESENT IN THE FLOW MODEL =    41

 MAXIMUM STEPSIZE WHICH MEETS STABILITY CRITERION OF THE SINK & SOURCE TERM
 =  3607.    (WHEN MIN. R.F.=1)  AT K=   2, I=   5, J=   1

 MAXIMUM STEPSIZE WHICH MEETS STABILITY CRITERION OF THE DISPERSION TERM
 =  444.4    (WHEN MIN. R.F.=1)  AT K=   1, I=   5, J=   5


     1 CALLS TO GCG PACKAGE FOR TRANSPORT TIME STEP   1 IN FLOW TIME STEP  90 STRESS PERIOD   5
     2 TOTAL ITERATIONS
  MAXIMUM CONCENTRATION CHANGES FOR EACH ITERATION:
  MAX. CHANGE LAYER,ROW,COL MAX. CHANGE LAYER,ROW,COL MAX. CHANGE LAYER,ROW,COL MAX. CHANGE LAYER,ROW,COL MAX. CHANGE LAYER,ROW,COL
 ------------------------------------------------------------------------------------------------------------------------------------
   0.9551E-03 (  1,  5,  5)  0.7105E-14 (  1,  7,  3)


                                          ================================================
                                                         TIME STEP NO.  091
                                          ================================================

 FROM TIME =   391.00     TO    392.00    


                    "THKSAT          " FLOW TERMS FOR TIME STEP 91, STRESS PERIOD  5 READ UNFORMATTED ON UNIT 10
                    --------------------------------------------------------------------------------------------

                    "QXX             " FLOW TERMS FOR TIME STEP 91, STRESS PERIOD  5 READ UNFORMATTED ON UNIT 10
                    --------------------------------------------------------------------------------------------

                    "QYY             " FLOW TERMS FOR TIME STEP 91, STRESS PERIOD  5 READ UNFORMATTED ON UNIT 10
                    --------------------------------------------------------------------------------------------

                    "QZZ             " FLOW TERMS FOR TIME STEP 91, STRESS PERIOD  5 READ UNFORMATTED ON UNIT 10
                    --------------------------------------------------------------------------------------------

                    "STO             " FLOW TERMS FOR TIME STEP 91, STRESS PERIOD  5 READ UNFORMATTED ON UNIT 10
                    --------------------------------------------------------------------------------------------

 MAXIMUM STEPSIZE DURING WHICH ANY PARTICLE CANNOT MOVE MORE THAN ONE CELL
 =  778.1    (WHEN MIN. R.F.=1)  AT K=   2, I=   5, J=   5

 MAXIMUM STEPSIZE WHICH MEETS STABILITY CRITERION OF THE ADVECTION TERM
 (FOR PURE FINITE-DIFFERENCE OPTION, MIXELM=0) 
 =  238.4    (WHEN MIN. R.F.=1)  AT K=   2, I=   5, J=   5

                    "CNH             " FLOW TERMS FOR TIME STEP 91, STRESS PERIOD  5 READ UNFORMATTED ON UNIT 10
                    --------------------------------------------------------------------------------------------

                    "WEL             " FLOW TERMS FOR TIME STEP 91, STRESS PERIOD  5 READ UNFORMATTED ON UNIT 10
                    --------------------------------------------------------------------------------------------

                    "GHB             " FLOW TERMS FOR TIME STEP 91, STRESS PERIOD  5 READ UNFORMATTED ON UNIT 10
                    --------------------------------------------------------------------------------------------


 TOTAL NUMBER OF POINT SOURCES/SINKS PRESENT IN THE FLOW MODEL =    41

 MAXIMUM STEPSIZE WHICH MEETS STABILITY CRITERION OF THE SINK & SOURCE TERM
 =  3579.    (WHEN MIN. R.F.=1)  AT K=   2, I=   5, J=   1

 MAXIMUM STEPSIZE WHICH MEETS STABILITY CRITERION OF THE DISPERSION TERM
 =  443.6    (WHEN MIN. R.F.=1)  AT K=   1, I=   5, J=   5


     1 CALLS TO GCG PACKAGE FOR TRANSPORT TIME STEP   1 IN FLOW TIME STEP  91 STRESS PERIOD   5
     2 TOTAL ITERATIONS
  MAXIMUM CONCENTRATION CHANGES FOR EACH ITERATION:
  MAX. CHANGE LAYER,ROW,COL MAX. CHANGE LAYER,ROW,COL MAX. CHANGE LAYER,ROW,COL MAX. CHANGE LAYER,ROW,COL MAX. CHANGE LAYER,ROW,COL
 ------------------------------------------------------------------------------------------------------------------------------------
   0.9558E-03 (  1,  5,  5)  0.2842E-13 (  2,  3,  4)


                                          ================================================
                                                         TIME STEP NO.  092
                                          ================================================

 FROM TIME =   392.00     TO    393.00    


                    "THKSAT          " FLOW TERMS FOR TIME STEP 92, STRESS PERIOD  5 READ UNFORMATTED ON UNIT 10
                    --------------------------------------------------------------------------------------------

                    "QXX             " FLOW TERMS FOR TIME STEP 92, STRESS PERIOD  5 READ UNFORMATTED ON UNIT 10
                    --------------------------------------------------------------------------------------------

                    "QYY             " FLOW TERMS FOR TIME STEP 92, STRESS PERIOD  5 READ UNFORMATTED ON UNIT 10
                    --------------------------------------------------------------------------------------------

                    "QZZ             " FLOW TERMS FOR TIME STEP 92, STRESS PERIOD  5 READ UNFORMATTED ON UNIT 10
                    --------------------------------------------------------------------------------------------

                    "STO             " FLOW TERMS FOR TIME STEP 92, STRESS PERIOD  5 READ UNFORMATTED ON UNIT 10
                    --------------------------------------------------------------------------------------------

 MAXIMUM STEPSIZE DURING WHICH ANY PARTICLE CANNOT MOVE MORE THAN ONE CELL
 =  777.3    (WHEN MIN. R.F.=1)  AT K=   2, I=   5, J=   5

 MAXIMUM STEPSIZE WHICH MEETS STABILITY CRITERION OF THE ADVECTION TERM
 (FOR PURE FINITE-DIFFERENCE OPTION, MIXELM=0) 
 =  238.2    (WHEN MIN. R.F.=1)  AT K=   2, I=   5, J=   5

                    "CNH             " FLOW TERMS FOR TIME STEP 92, STRESS PERIOD  5 READ UNFORMATTED ON UNIT 10
                    --------------------------------------------------------------------------------------------

                    "WEL             " FLOW TERMS FOR TIME STEP 92, STRESS PERIOD  5 READ UNFORMATTED ON UNIT 10
                    --------------------------------------------------------------------------------------------

                    "GHB             " FLOW TERMS FOR TIME STEP 92, STRESS PERIOD  5 READ UNFORMATTED ON UNIT 10
                    --------------------------------------------------------------------------------------------


 TOTAL NUMBER OF POINT SOURCES/SINKS PRESENT IN THE FLOW MODEL =    41

 MAXIMUM STEPSIZE WHICH MEETS STABILITY CRITERION OF THE SINK & SOURCE TERM
 =  3551.    (WHEN MIN. R.F.=1)  AT K=   2, I=   5, J=   1

 MAXIMUM STEPSIZE WHICH MEETS STABILITY CRITERION OF THE DISPERSION TERM
 =  442.9    (WHEN MIN. R.F.=1)  AT K=   1, I=   5, J=   5


     1 CALLS TO GCG PACKAGE FOR TRANSPORT TIME STEP   1 IN FLOW TIME STEP  92 STRESS PERIOD   5
     2 TOTAL ITERATIONS
  MAXIMUM CONCENTRATION CHANGES FOR EACH ITERATION:
  MAX. CHANGE LAYER,ROW,COL MAX. CHANGE LAYER,ROW,COL MAX. CHANGE LAYER,ROW,COL MAX. CHANGE LAYER,ROW,COL MAX. CHANGE LAYER,ROW,COL
 ------------------------------------------------------------------------------------------------------------------------------------
   0.9566E-03 (  1,  5,  5)  0.7105E-14 (  1,  7,  3)


                                          ================================================
                                                         TIME STEP NO.  093
                                          ================================================

 FROM TIME =   393.00     TO    394.00    


                    "THKSAT          " FLOW TERMS FOR TIME STEP 93, STRESS PERIOD  5 READ UNFORMATTED ON UNIT 10
                    --------------------------------------------------------------------------------------------

                    "QXX             " FLOW TERMS FOR TIME STEP 93, STRESS PERIOD  5 READ UNFORMATTED ON UNIT 10
                    --------------------------------------------------------------------------------------------

                    "QYY             " FLOW TERMS FOR TIME STEP 93, STRESS PERIOD  5 READ UNFORMATTED ON UNIT 10
                    --------------------------------------------------------------------------------------------

                    "QZZ             " FLOW TERMS FOR TIME STEP 93, STRESS PERIOD  5 READ UNFORMATTED ON UNIT 10
                    --------------------------------------------------------------------------------------------

                    "STO             " FLOW TERMS FOR TIME STEP 93, STRESS PERIOD  5 READ UNFORMATTED ON UNIT 10
                    --------------------------------------------------------------------------------------------

 MAXIMUM STEPSIZE DURING WHICH ANY PARTICLE CANNOT MOVE MORE THAN ONE CELL
 =  776.5    (WHEN MIN. R.F.=1)  AT K=   2, I=   5, J=   5

 MAXIMUM STEPSIZE WHICH MEETS STABILITY CRITERION OF THE ADVECTION TERM
 (FOR PURE FINITE-DIFFERENCE OPTION, MIXELM=0) 
 =  237.9    (WHEN MIN. R.F.=1)  AT K=   2, I=   5, J=   5

                    "CNH             " FLOW TERMS FOR TIME STEP 93, STRESS PERIOD  5 READ UNFORMATTED ON UNIT 10
                    --------------------------------------------------------------------------------------------

                    "WEL             " FLOW TERMS FOR TIME STEP 93, STRESS PERIOD  5 READ UNFORMATTED ON UNIT 10
                    --------------------------------------------------------------------------------------------

                    "GHB             " FLOW TERMS FOR TIME STEP 93, STRESS PERIOD  5 READ UNFORMATTED ON UNIT 10
                    --------------------------------------------------------------------------------------------


 TOTAL NUMBER OF POINT SOURCES/SINKS PRESENT IN THE FLOW MODEL =    41

 MAXIMUM STEPSIZE WHICH MEETS STABILITY CRITERION OF THE SINK & SOURCE TERM
 =  3524.    (WHEN MIN. R.F.=1)  AT K=   2, I=   5, J=   1

 MAXIMUM STEPSIZE WHICH MEETS STABILITY CRITERION OF THE DISPERSION TERM
 =  442.1    (WHEN MIN. R.F.=1)  AT K=   1, I=   5, J=   5


     1 CALLS TO GCG PACKAGE FOR TRANSPORT TIME STEP   1 IN FLOW TIME STEP  93 STRESS PERIOD   5
     2 TOTAL ITERATIONS
  MAXIMUM CONCENTRATION CHANGES FOR EACH ITERATION:
  MAX. CHANGE LAYER,ROW,COL MAX. CHANGE LAYER,ROW,COL MAX. CHANGE LAYER,ROW,COL MAX. CHANGE LAYER,ROW,COL MAX. CHANGE LAYER,ROW,COL
 ------------------------------------------------------------------------------------------------------------------------------------
   0.9571E-03 (  1,  5,  5)  0.7105E-14 (  1,  7,  3)


                                          ================================================
                                                         TIME STEP NO.  094
                                          ================================================

 FROM TIME =   394.00     TO    395.00    


                    "THKSAT          " FLOW TERMS FOR TIME STEP 94, STRESS PERIOD  5 READ UNFORMATTED ON UNIT 10
                    --------------------------------------------------------------------------------------------

                    "QXX             " FLOW TERMS FOR TIME STEP 94, STRESS PERIOD  5 READ UNFORMATTED ON UNIT 10
                    --------------------------------------------------------------------------------------------

                    "QYY             " FLOW TERMS FOR TIME STEP 94, STRESS PERIOD  5 READ UNFORMATTED ON UNIT 10
                    --------------------------------------------------------------------------------------------

                    "QZZ             " FLOW TERMS FOR TIME STEP 94, STRESS PERIOD  5 READ UNFORMATTED ON UNIT 10
                    --------------------------------------------------------------------------------------------

                    "STO             " FLOW TERMS FOR TIME STEP 94, STRESS PERIOD  5 READ UNFORMATTED ON UNIT 10
                    --------------------------------------------------------------------------------------------

 MAXIMUM STEPSIZE DURING WHICH ANY PARTICLE CANNOT MOVE MORE THAN ONE CELL
 =  775.8    (WHEN MIN. R.F.=1)  AT K=   2, I=   5, J=   5

 MAXIMUM STEPSIZE WHICH MEETS STABILITY CRITERION OF THE ADVECTION TERM
 (FOR PURE FINITE-DIFFERENCE OPTION, MIXELM=0) 
 =  237.7    (WHEN MIN. R.F.=1)  AT K=   2, I=   5, J=   5

                    "CNH             " FLOW TERMS FOR TIME STEP 94, STRESS PERIOD  5 READ UNFORMATTED ON UNIT 10
                    --------------------------------------------------------------------------------------------

                    "WEL             " FLOW TERMS FOR TIME STEP 94, STRESS PERIOD  5 READ UNFORMATTED ON UNIT 10
                    --------------------------------------------------------------------------------------------

                    "GHB             " FLOW TERMS FOR TIME STEP 94, STRESS PERIOD  5 READ UNFORMATTED ON UNIT 10
                    --------------------------------------------------------------------------------------------


 TOTAL NUMBER OF POINT SOURCES/SINKS PRESENT IN THE FLOW MODEL =    41

 MAXIMUM STEPSIZE WHICH MEETS STABILITY CRITERION OF THE SINK & SOURCE TERM
 =  3498.    (WHEN MIN. R.F.=1)  AT K=   2, I=   5, J=   1

 MAXIMUM STEPSIZE WHICH MEETS STABILITY CRITERION OF THE DISPERSION TERM
 =  441.4    (WHEN MIN. R.F.=1)  AT K=   1, I=   5, J=   5


     1 CALLS TO GCG PACKAGE FOR TRANSPORT TIME STEP   1 IN FLOW TIME STEP  94 STRESS PERIOD   5
     2 TOTAL ITERATIONS
  MAXIMUM CONCENTRATION CHANGES FOR EACH ITERATION:
  MAX. CHANGE LAYER,ROW,COL MAX. CHANGE LAYER,ROW,COL MAX. CHANGE LAYER,ROW,COL MAX. CHANGE LAYER,ROW,COL MAX. CHANGE LAYER,ROW,COL
 ------------------------------------------------------------------------------------------------------------------------------------
   0.9578E-03 (  1,  5,  5)  0.8882E-14 (  1,  7,  3)


                                          ================================================
                                                         TIME STEP NO.  095
                                          ================================================

 FROM TIME =   395.00     TO    396.00    


                    "THKSAT          " FLOW TERMS FOR TIME STEP 95, STRESS PERIOD  5 READ UNFORMATTED ON UNIT 10
                    --------------------------------------------------------------------------------------------

                    "QXX             " FLOW TERMS FOR TIME STEP 95, STRESS PERIOD  5 READ UNFORMATTED ON UNIT 10
                    --------------------------------------------------------------------------------------------

                    "QYY             " FLOW TERMS FOR TIME STEP 95, STRESS PERIOD  5 READ UNFORMATTED ON UNIT 10
                    --------------------------------------------------------------------------------------------

                    "QZZ             " FLOW TERMS FOR TIME STEP 95, STRESS PERIOD  5 READ UNFORMATTED ON UNIT 10
                    --------------------------------------------------------------------------------------------

                    "STO             " FLOW TERMS FOR TIME STEP 95, STRESS PERIOD  5 READ UNFORMATTED ON UNIT 10
                    --------------------------------------------------------------------------------------------

 MAXIMUM STEPSIZE DURING WHICH ANY PARTICLE CANNOT MOVE MORE THAN ONE CELL
 =  775.0    (WHEN MIN. R.F.=1)  AT K=   2, I=   5, J=   5

 MAXIMUM STEPSIZE WHICH MEETS STABILITY CRITERION OF THE ADVECTION TERM
 (FOR PURE FINITE-DIFFERENCE OPTION, MIXELM=0) 
 =  237.5    (WHEN MIN. R.F.=1)  AT K=   2, I=   5, J=   5

                    "CNH             " FLOW TERMS FOR TIME STEP 95, STRESS PERIOD  5 READ UNFORMATTED ON UNIT 10
                    --------------------------------------------------------------------------------------------

                    "WEL             " FLOW TERMS FOR TIME STEP 95, STRESS PERIOD  5 READ UNFORMATTED ON UNIT 10
                    --------------------------------------------------------------------------------------------

                    "GHB             " FLOW TERMS FOR TIME STEP 95, STRESS PERIOD  5 READ UNFORMATTED ON UNIT 10
                    --------------------------------------------------------------------------------------------


 TOTAL NUMBER OF POINT SOURCES/SINKS PRESENT IN THE FLOW MODEL =    41

 MAXIMUM STEPSIZE WHICH MEETS STABILITY CRITERION OF THE SINK & SOURCE TERM
 =  3472.    (WHEN MIN. R.F.=1)  AT K=   2, I=   5, J=   1

 MAXIMUM STEPSIZE WHICH MEETS STABILITY CRITERION OF THE DISPERSION TERM
 =  440.7    (WHEN MIN. R.F.=1)  AT K=   1, I=   5, J=   5


     1 CALLS TO GCG PACKAGE FOR TRANSPORT TIME STEP   1 IN FLOW TIME STEP  95 STRESS PERIOD   5
     2 TOTAL ITERATIONS
  MAXIMUM CONCENTRATION CHANGES FOR EACH ITERATION:
  MAX. CHANGE LAYER,ROW,COL MAX. CHANGE LAYER,ROW,COL MAX. CHANGE LAYER,ROW,COL MAX. CHANGE LAYER,ROW,COL MAX. CHANGE LAYER,ROW,COL
 ------------------------------------------------------------------------------------------------------------------------------------
   0.9584E-03 (  1,  5,  5)  0.8882E-14 (  1,  7,  3)


                                          ================================================
                                                         TIME STEP NO.  096
                                          ================================================

 FROM TIME =   396.00     TO    397.00    


                    "THKSAT          " FLOW TERMS FOR TIME STEP 96, STRESS PERIOD  5 READ UNFORMATTED ON UNIT 10
                    --------------------------------------------------------------------------------------------

                    "QXX             " FLOW TERMS FOR TIME STEP 96, STRESS PERIOD  5 READ UNFORMATTED ON UNIT 10
                    --------------------------------------------------------------------------------------------

                    "QYY             " FLOW TERMS FOR TIME STEP 96, STRESS PERIOD  5 READ UNFORMATTED ON UNIT 10
                    --------------------------------------------------------------------------------------------

                    "QZZ             " FLOW TERMS FOR TIME STEP 96, STRESS PERIOD  5 READ UNFORMATTED ON UNIT 10
                    --------------------------------------------------------------------------------------------

                    "STO             " FLOW TERMS FOR TIME STEP 96, STRESS PERIOD  5 READ UNFORMATTED ON UNIT 10
                    --------------------------------------------------------------------------------------------

 MAXIMUM STEPSIZE DURING WHICH ANY PARTICLE CANNOT MOVE MORE THAN ONE CELL
 =  774.3    (WHEN MIN. R.F.=1)  AT K=   2, I=   5, J=   5

 MAXIMUM STEPSIZE WHICH MEETS STABILITY CRITERION OF THE ADVECTION TERM
 (FOR PURE FINITE-DIFFERENCE OPTION, MIXELM=0) 
 =  237.3    (WHEN MIN. R.F.=1)  AT K=   2, I=   5, J=   5

                    "CNH             " FLOW TERMS FOR TIME STEP 96, STRESS PERIOD  5 READ UNFORMATTED ON UNIT 10
                    --------------------------------------------------------------------------------------------

                    "WEL             " FLOW TERMS FOR TIME STEP 96, STRESS PERIOD  5 READ UNFORMATTED ON UNIT 10
                    --------------------------------------------------------------------------------------------

                    "GHB             " FLOW TERMS FOR TIME STEP 96, STRESS PERIOD  5 READ UNFORMATTED ON UNIT 10
                    --------------------------------------------------------------------------------------------


 TOTAL NUMBER OF POINT SOURCES/SINKS PRESENT IN THE FLOW MODEL =    41

 MAXIMUM STEPSIZE WHICH MEETS STABILITY CRITERION OF THE SINK & SOURCE TERM
 =  3447.    (WHEN MIN. R.F.=1)  AT K=   2, I=   5, J=   1

 MAXIMUM STEPSIZE WHICH MEETS STABILITY CRITERION OF THE DISPERSION TERM
 =  440.0    (WHEN MIN. R.F.=1)  AT K=   1, I=   5, J=   5


     1 CALLS TO GCG PACKAGE FOR TRANSPORT TIME STEP   1 IN FLOW TIME STEP  96 STRESS PERIOD   5
     2 TOTAL ITERATIONS
  MAXIMUM CONCENTRATION CHANGES FOR EACH ITERATION:
  MAX. CHANGE LAYER,ROW,COL MAX. CHANGE LAYER,ROW,COL MAX. CHANGE LAYER,ROW,COL MAX. CHANGE LAYER,ROW,COL MAX. CHANGE LAYER,ROW,COL
 ------------------------------------------------------------------------------------------------------------------------------------
   0.9592E-03 (  1,  5,  5)  0.5684E-13 (  2,  7,  4)


                                          ================================================
                                                         TIME STEP NO.  097
                                          ================================================

 FROM TIME =   397.00     TO    398.00    


                    "THKSAT          " FLOW TERMS FOR TIME STEP 97, STRESS PERIOD  5 READ UNFORMATTED ON UNIT 10
                    --------------------------------------------------------------------------------------------

                    "QXX             " FLOW TERMS FOR TIME STEP 97, STRESS PERIOD  5 READ UNFORMATTED ON UNIT 10
                    --------------------------------------------------------------------------------------------

                    "QYY             " FLOW TERMS FOR TIME STEP 97, STRESS PERIOD  5 READ UNFORMATTED ON UNIT 10
                    --------------------------------------------------------------------------------------------

                    "QZZ             " FLOW TERMS FOR TIME STEP 97, STRESS PERIOD  5 READ UNFORMATTED ON UNIT 10
                    --------------------------------------------------------------------------------------------

                    "STO             " FLOW TERMS FOR TIME STEP 97, STRESS PERIOD  5 READ UNFORMATTED ON UNIT 10
                    --------------------------------------------------------------------------------------------

 MAXIMUM STEPSIZE DURING WHICH ANY PARTICLE CANNOT MOVE MORE THAN ONE CELL
 =  773.6    (WHEN MIN. R.F.=1)  AT K=   2, I=   5, J=   5

 MAXIMUM STEPSIZE WHICH MEETS STABILITY CRITERION OF THE ADVECTION TERM
 (FOR PURE FINITE-DIFFERENCE OPTION, MIXELM=0) 
 =  237.0    (WHEN MIN. R.F.=1)  AT K=   2, I=   5, J=   5

                    "CNH             " FLOW TERMS FOR TIME STEP 97, STRESS PERIOD  5 READ UNFORMATTED ON UNIT 10
                    --------------------------------------------------------------------------------------------

                    "WEL             " FLOW TERMS FOR TIME STEP 97, STRESS PERIOD  5 READ UNFORMATTED ON UNIT 10
                    --------------------------------------------------------------------------------------------

                    "GHB             " FLOW TERMS FOR TIME STEP 97, STRESS PERIOD  5 READ UNFORMATTED ON UNIT 10
                    --------------------------------------------------------------------------------------------


 TOTAL NUMBER OF POINT SOURCES/SINKS PRESENT IN THE FLOW MODEL =    41

 MAXIMUM STEPSIZE WHICH MEETS STABILITY CRITERION OF THE SINK & SOURCE TERM
 =  3423.    (WHEN MIN. R.F.=1)  AT K=   2, I=   5, J=   1

 MAXIMUM STEPSIZE WHICH MEETS STABILITY CRITERION OF THE DISPERSION TERM
 =  439.3    (WHEN MIN. R.F.=1)  AT K=   1, I=   5, J=   5


     1 CALLS TO GCG PACKAGE FOR TRANSPORT TIME STEP   1 IN FLOW TIME STEP  97 STRESS PERIOD   5
     2 TOTAL ITERATIONS
  MAXIMUM CONCENTRATION CHANGES FOR EACH ITERATION:
  MAX. CHANGE LAYER,ROW,COL MAX. CHANGE LAYER,ROW,COL MAX. CHANGE LAYER,ROW,COL MAX. CHANGE LAYER,ROW,COL MAX. CHANGE LAYER,ROW,COL
 ------------------------------------------------------------------------------------------------------------------------------------
   0.9596E-03 (  1,  5,  5)  0.2842E-13 (  2,  7,  4)


                                          ================================================
                                                         TIME STEP NO.  098
                                          ================================================

 FROM TIME =   398.00     TO    399.00    


                    "THKSAT          " FLOW TERMS FOR TIME STEP 98, STRESS PERIOD  5 READ UNFORMATTED ON UNIT 10
                    --------------------------------------------------------------------------------------------

                    "QXX             " FLOW TERMS FOR TIME STEP 98, STRESS PERIOD  5 READ UNFORMATTED ON UNIT 10
                    --------------------------------------------------------------------------------------------

                    "QYY             " FLOW TERMS FOR TIME STEP 98, STRESS PERIOD  5 READ UNFORMATTED ON UNIT 10
                    --------------------------------------------------------------------------------------------

                    "QZZ             " FLOW TERMS FOR TIME STEP 98, STRESS PERIOD  5 READ UNFORMATTED ON UNIT 10
                    --------------------------------------------------------------------------------------------

                    "STO             " FLOW TERMS FOR TIME STEP 98, STRESS PERIOD  5 READ UNFORMATTED ON UNIT 10
                    --------------------------------------------------------------------------------------------

 MAXIMUM STEPSIZE DURING WHICH ANY PARTICLE CANNOT MOVE MORE THAN ONE CELL
 =  772.9    (WHEN MIN. R.F.=1)  AT K=   2, I=   5, J=   5

 MAXIMUM STEPSIZE WHICH MEETS STABILITY CRITERION OF THE ADVECTION TERM
 (FOR PURE FINITE-DIFFERENCE OPTION, MIXELM=0) 
 =  236.8    (WHEN MIN. R.F.=1)  AT K=   2, I=   5, J=   5

                    "CNH             " FLOW TERMS FOR TIME STEP 98, STRESS PERIOD  5 READ UNFORMATTED ON UNIT 10
                    --------------------------------------------------------------------------------------------

                    "WEL             " FLOW TERMS FOR TIME STEP 98, STRESS PERIOD  5 READ UNFORMATTED ON UNIT 10
                    --------------------------------------------------------------------------------------------

                    "GHB             " FLOW TERMS FOR TIME STEP 98, STRESS PERIOD  5 READ UNFORMATTED ON UNIT 10
                    --------------------------------------------------------------------------------------------


 TOTAL NUMBER OF POINT SOURCES/SINKS PRESENT IN THE FLOW MODEL =    41

 MAXIMUM STEPSIZE WHICH MEETS STABILITY CRITERION OF THE SINK & SOURCE TERM
 =  3399.    (WHEN MIN. R.F.=1)  AT K=   2, I=   5, J=   1

 MAXIMUM STEPSIZE WHICH MEETS STABILITY CRITERION OF THE DISPERSION TERM
 =  438.7    (WHEN MIN. R.F.=1)  AT K=   1, I=   5, J=   5


     1 CALLS TO GCG PACKAGE FOR TRANSPORT TIME STEP   1 IN FLOW TIME STEP  98 STRESS PERIOD   5
     2 TOTAL ITERATIONS
  MAXIMUM CONCENTRATION CHANGES FOR EACH ITERATION:
  MAX. CHANGE LAYER,ROW,COL MAX. CHANGE LAYER,ROW,COL MAX. CHANGE LAYER,ROW,COL MAX. CHANGE LAYER,ROW,COL MAX. CHANGE LAYER,ROW,COL
 ------------------------------------------------------------------------------------------------------------------------------------
   0.9601E-03 (  1,  5,  5)  0.8882E-14 (  1,  7,  3)


                                          ================================================
                                                         TIME STEP NO.  099
                                          ================================================

 FROM TIME =   399.00     TO    400.00    


                    "THKSAT          " FLOW TERMS FOR TIME STEP 99, STRESS PERIOD  5 READ UNFORMATTED ON UNIT 10
                    --------------------------------------------------------------------------------------------

                    "QXX             " FLOW TERMS FOR TIME STEP 99, STRESS PERIOD  5 READ UNFORMATTED ON UNIT 10
                    --------------------------------------------------------------------------------------------

                    "QYY             " FLOW TERMS FOR TIME STEP 99, STRESS PERIOD  5 READ UNFORMATTED ON UNIT 10
                    --------------------------------------------------------------------------------------------

                    "QZZ             " FLOW TERMS FOR TIME STEP 99, STRESS PERIOD  5 READ UNFORMATTED ON UNIT 10
                    --------------------------------------------------------------------------------------------

                    "STO             " FLOW TERMS FOR TIME STEP 99, STRESS PERIOD  5 READ UNFORMATTED ON UNIT 10
                    --------------------------------------------------------------------------------------------

 MAXIMUM STEPSIZE DURING WHICH ANY PARTICLE CANNOT MOVE MORE THAN ONE CELL
 =  772.2    (WHEN MIN. R.F.=1)  AT K=   2, I=   5, J=   5

 MAXIMUM STEPSIZE WHICH MEETS STABILITY CRITERION OF THE ADVECTION TERM
 (FOR PURE FINITE-DIFFERENCE OPTION, MIXELM=0) 
 =  236.6    (WHEN MIN. R.F.=1)  AT K=   2, I=   5, J=   5

                    "CNH             " FLOW TERMS FOR TIME STEP 99, STRESS PERIOD  5 READ UNFORMATTED ON UNIT 10
                    --------------------------------------------------------------------------------------------

                    "WEL             " FLOW TERMS FOR TIME STEP 99, STRESS PERIOD  5 READ UNFORMATTED ON UNIT 10
                    --------------------------------------------------------------------------------------------

                    "GHB             " FLOW TERMS FOR TIME STEP 99, STRESS PERIOD  5 READ UNFORMATTED ON UNIT 10
                    --------------------------------------------------------------------------------------------


 TOTAL NUMBER OF POINT SOURCES/SINKS PRESENT IN THE FLOW MODEL =    41

 MAXIMUM STEPSIZE WHICH MEETS STABILITY CRITERION OF THE SINK & SOURCE TERM
 =  3376.    (WHEN MIN. R.F.=1)  AT K=   2, I=   5, J=   1

 MAXIMUM STEPSIZE WHICH MEETS STABILITY CRITERION OF THE DISPERSION TERM
 =  438.0    (WHEN MIN. R.F.=1)  AT K=   1, I=   5, J=   5


     1 CALLS TO GCG PACKAGE FOR TRANSPORT TIME STEP   1 IN FLOW TIME STEP  99 STRESS PERIOD   5
     2 TOTAL ITERATIONS
  MAXIMUM CONCENTRATION CHANGES FOR EACH ITERATION:
  MAX. CHANGE LAYER,ROW,COL MAX. CHANGE LAYER,ROW,COL MAX. CHANGE LAYER,ROW,COL MAX. CHANGE LAYER,ROW,COL MAX. CHANGE LAYER,ROW,COL
 ------------------------------------------------------------------------------------------------------------------------------------
   0.9608E-03 (  1,  5,  5)  0.4263E-13 (  2,  7,  4)


                                          ================================================
                                                         TIME STEP NO.  100
                                          ================================================

 FROM TIME =   400.00     TO    401.00    


                    "THKSAT          " FLOW TERMS FOR TIME STEP100, STRESS PERIOD  5 READ UNFORMATTED ON UNIT 10
                    --------------------------------------------------------------------------------------------

                    "QXX             " FLOW TERMS FOR TIME STEP100, STRESS PERIOD  5 READ UNFORMATTED ON UNIT 10
                    --------------------------------------------------------------------------------------------

                    "QYY             " FLOW TERMS FOR TIME STEP100, STRESS PERIOD  5 READ UNFORMATTED ON UNIT 10
                    --------------------------------------------------------------------------------------------

                    "QZZ             " FLOW TERMS FOR TIME STEP100, STRESS PERIOD  5 READ UNFORMATTED ON UNIT 10
                    --------------------------------------------------------------------------------------------

                    "STO             " FLOW TERMS FOR TIME STEP100, STRESS PERIOD  5 READ UNFORMATTED ON UNIT 10
                    --------------------------------------------------------------------------------------------

 MAXIMUM STEPSIZE DURING WHICH ANY PARTICLE CANNOT MOVE MORE THAN ONE CELL
 =  771.5    (WHEN MIN. R.F.=1)  AT K=   2, I=   5, J=   5

 MAXIMUM STEPSIZE WHICH MEETS STABILITY CRITERION OF THE ADVECTION TERM
 (FOR PURE FINITE-DIFFERENCE OPTION, MIXELM=0) 
 =  236.4    (WHEN MIN. R.F.=1)  AT K=   2, I=   5, J=   5

                    "CNH             " FLOW TERMS FOR TIME STEP100, STRESS PERIOD  5 READ UNFORMATTED ON UNIT 10
                    --------------------------------------------------------------------------------------------

                    "WEL             " FLOW TERMS FOR TIME STEP100, STRESS PERIOD  5 READ UNFORMATTED ON UNIT 10
                    --------------------------------------------------------------------------------------------

                    "GHB             " FLOW TERMS FOR TIME STEP100, STRESS PERIOD  5 READ UNFORMATTED ON UNIT 10
                    --------------------------------------------------------------------------------------------


 TOTAL NUMBER OF POINT SOURCES/SINKS PRESENT IN THE FLOW MODEL =    41

 MAXIMUM STEPSIZE WHICH MEETS STABILITY CRITERION OF THE SINK & SOURCE TERM
 =  3353.    (WHEN MIN. R.F.=1)  AT K=   2, I=   5, J=   1

 MAXIMUM STEPSIZE WHICH MEETS STABILITY CRITERION OF THE DISPERSION TERM
 =  437.4    (WHEN MIN. R.F.=1)  AT K=   1, I=   5, J=   5


     1 CALLS TO GCG PACKAGE FOR TRANSPORT TIME STEP   1 IN FLOW TIME STEP 100 STRESS PERIOD   5
     2 TOTAL ITERATIONS
  MAXIMUM CONCENTRATION CHANGES FOR EACH ITERATION:
  MAX. CHANGE LAYER,ROW,COL MAX. CHANGE LAYER,ROW,COL MAX. CHANGE LAYER,ROW,COL MAX. CHANGE LAYER,ROW,COL MAX. CHANGE LAYER,ROW,COL
 ------------------------------------------------------------------------------------------------------------------------------------
   0.9611E-03 (  1,  5,  5)  0.1137E-12 (  1,  7,  4)



 >>>>>>>>>>>>>>>>>>>>>>>>>>>>>>>>>>>>>>>>>>>>>>>>>>>>>>>FOR COMPONENT NO. 01<<<<<<<<<<<<<<<<<<<<<<<<<<<<<<<<<<<<<<<<<<<<<<<<<<<<<<<


                                            -------------------------------------------
                                                      TRANSPORT STEP NO.    1
                                            -------------------------------------------

 TOTAL ELAPSED TIME SINCE BEGINNING OF SIMULATION =   401.0000    D   
 .....................................................................

 TOTAL PARTICLES USED IN THE CURRENT STEP =      1680
 PARTICLES ADDED AT BEGINNING OF THE STEP =         0
 PARTICLES REMOVED AT END OF LAST STEP    =         0

                     CUMMULATIVE MASS BUDGETS AT END OF TRANSPORT STEP    1, TIME STEP  100, STRESS PERIOD    5
                     ------------------------------------------------------------------------------------------

                                                             IN                           OUT
                                                      ----------------             ----------------
                               CONSTANT CONCENTRATION:    0.000000                    0.000000    
                                        CONSTANT HEAD:    0.000000                    0.000000    
                                                WELLS:   0.2200000E+09              -0.3979645E+08
                              HEAD-DEPENDENT BOUNDARY:    0.000000                   -7.231780    
                                MASS STORAGE (SOLUTE):   0.3754373E+08              -0.1999681E+09
                            ---------------------------------------------------------------------------
                                              [TOTAL]:   0.2668393E+09 KG           -0.2398144E+09 KG  

                                                          NET (IN - OUT):   0.2702486E+08
                                                   DISCREPANCY (PERCENT):    10.66798    
  ----- 
 | M T |
 | 3 D | END OF MODEL OUTPUT
  ----- 
