                                  MODFLOW-2005     
      U.S. GEOLOGICAL SURVEY MODULAR FINITE-DIFFERENCE GROUND-WATER FLOW MODEL
                            VERSION 1.12.00 2/3/2017

 LIST FILE: BoxModel.list
                         UNIT    2

 OPENING BoxModel.dis
 FILE TYPE:DIS   UNIT   11   STATUS:OLD    
 FORMAT:FORMATTED              ACCESS:SEQUENTIAL          

 OPENING BoxModel.bas
 FILE TYPE:BAS6   UNIT   13   STATUS:OLD    
 FORMAT:FORMATTED              ACCESS:SEQUENTIAL          

 OPENING BoxModel.lpf
 FILE TYPE:LPF   UNIT   15   STATUS:OLD    
 FORMAT:FORMATTED              ACCESS:SEQUENTIAL          

 OPENING BoxModel.pcg
 FILE TYPE:PCG   UNIT   27   STATUS:OLD    
 FORMAT:FORMATTED              ACCESS:SEQUENTIAL          

 OPENING BoxModel.ghb
 FILE TYPE:GHB   UNIT   23   STATUS:OLD    
 FORMAT:FORMATTED              ACCESS:SEQUENTIAL          

 OPENING BoxModel.wel
 FILE TYPE:WEL   UNIT   20   STATUS:OLD    
 FORMAT:FORMATTED              ACCESS:SEQUENTIAL          

 OPENING BoxModel.oc
 FILE TYPE:OC   UNIT   14   STATUS:OLD    
 FORMAT:FORMATTED              ACCESS:SEQUENTIAL          

 OPENING BoxModel.lmt6
 FILE TYPE:LMT6   UNIT   30   STATUS:OLD    
 FORMAT:FORMATTED              ACCESS:SEQUENTIAL          

 OPENING BoxModel.cbc
 FILE TYPE:DATA(BINARY)   UNIT   53   STATUS:REPLACE
 FORMAT:UNFORMATTED            ACCESS:STREAM              

 OPENING BoxModel.hds
 FILE TYPE:DATA(BINARY)   UNIT   51   STATUS:REPLACE
 FORMAT:UNFORMATTED            ACCESS:STREAM              

 OPENING BoxModel.ddn
 FILE TYPE:DATA(BINARY)   UNIT   52   STATUS:REPLACE
 FORMAT:UNFORMATTED            ACCESS:STREAM              

 BAS -- BASIC PACKAGE, VERSION 7, 5/2/2005 INPUT READ FROM UNIT   13
 
 MODFLOW was compiled using mixed precision
 Precision of REAL variables:           6
 Precision of DOUBLE PRECISION variables:          15

 DISCRETIZATION INPUT DATA READ FROM UNIT   11
 # DIS package for  MODFLOW-2005, generated by Flopy.
    5 LAYERS        10 ROWS        10 COLUMNS
    3 STRESS PERIOD(S) IN SIMULATION
 MODEL TIME UNIT IS DAYS
 MODEL LENGTH UNIT IS METERS
  Confining bed flag for each layer:
   0   0   0   0   0

                     DELR =   100.000    

                     DELC =   100.000    

 TOP ELEVATION OF LAYER 1 =   10.0000    

   MODEL LAYER BOTTOM EL. =  -12.0000     FOR LAYER   1

   MODEL LAYER BOTTOM EL. =  -34.0000     FOR LAYER   2

   MODEL LAYER BOTTOM EL. =  -56.0000     FOR LAYER   3

   MODEL LAYER BOTTOM EL. =  -78.0000     FOR LAYER   4

   MODEL LAYER BOTTOM EL. =  -100.000     FOR LAYER   5


 STRESS PERIOD     LENGTH       TIME STEPS     MULTIPLIER FOR DELT    SS FLAG
 ----------------------------------------------------------------------------
        1         1.000000          1                    1.000         SS
        2         100.0000        100                    1.000         TR
        3         100.0000        100                    1.000         TR

 COMBINED STEADY-STATE AND TRANSIENT SIMULATION



 
 # BAS6 package for  MODFLOW-2005, generated by Flopy.                           
 THE FREE FORMAT OPTION HAS BEEN SELECTED



                     BOUNDARY ARRAY FOR LAYER   1
 READING ON UNIT   13 WITH FORMAT: (10I10)             



                     BOUNDARY ARRAY FOR LAYER   2
 READING ON UNIT   13 WITH FORMAT: (10I10)             



                     BOUNDARY ARRAY FOR LAYER   3
 READING ON UNIT   13 WITH FORMAT: (10I10)             



                     BOUNDARY ARRAY FOR LAYER   4
 READING ON UNIT   13 WITH FORMAT: (10I10)             



                     BOUNDARY ARRAY FOR LAYER   5
 READING ON UNIT   13 WITH FORMAT: (10I10)             

 AQUIFER HEAD WILL BE SET TO  -999.99     AT ALL NO-FLOW NODES (IBOUND=0).



                       INITIAL HEAD FOR LAYER   1
 READING ON UNIT   13 WITH FORMAT: (10E15.6)           



                       INITIAL HEAD FOR LAYER   2
 READING ON UNIT   13 WITH FORMAT: (10E15.6)           



                       INITIAL HEAD FOR LAYER   3
 READING ON UNIT   13 WITH FORMAT: (10E15.6)           



                       INITIAL HEAD FOR LAYER   4
 READING ON UNIT   13 WITH FORMAT: (10E15.6)           



                       INITIAL HEAD FOR LAYER   5
 READING ON UNIT   13 WITH FORMAT: (10E15.6)           
 # OC package for  MODFLOW-2005, generated by Flopy.

 OUTPUT CONTROL IS SPECIFIED ONLY AT TIME STEPS FOR WHICH OUTPUT IS DESIRED
 COMPACT CELL-BY-CELL BUDGET FILES WILL BE WRITTEN
 AUXILIARY DATA WILL BE SAVED IN CELL-BY-CELL BUDGET FILES
 HEAD PRINT FORMAT CODE IS   0    DRAWDOWN PRINT FORMAT CODE IS   0
 HEADS WILL BE SAVED ON UNIT   51    DRAWDOWNS WILL BE SAVED ON UNIT   52

 LPF -- LAYER-PROPERTY FLOW PACKAGE, VERSION 7, 5/2/2005
         INPUT READ FROM UNIT   15
 # LPF package for  MODFLOW-2005, generated by Flopy.
 CELL-BY-CELL FLOWS WILL BE SAVED ON UNIT   53
 HEAD AT CELLS THAT CONVERT TO DRY= -1.00000E+30
 No named parameters

   LAYER FLAGS:
 LAYER       LAYTYP        LAYAVG         CHANI        LAYVKA        LAYWET
 ---------------------------------------------------------------------------
    1             1             0     1.000E+00             0             0
    2             0             0     1.000E+00             0             0
    3             0             0     1.000E+00             0             0
    4             0             0     1.000E+00             0             0
    5             0             0     1.000E+00             0             0

   INTERPRETATION OF LAYER FLAGS:
                        INTERBLOCK     HORIZONTAL    DATA IN
         LAYER TYPE   TRANSMISSIVITY   ANISOTROPY   ARRAY VKA   WETTABILITY
 LAYER      (LAYTYP)      (LAYAVG)       (CHANI)      (LAYVKA)      (LAYWET)
 ---------------------------------------------------------------------------
    1   CONVERTIBLE      HARMONIC     1.000E+00    VERTICAL K  NON-WETTABLE
    2      CONFINED      HARMONIC     1.000E+00    VERTICAL K  NON-WETTABLE
    3      CONFINED      HARMONIC     1.000E+00    VERTICAL K  NON-WETTABLE
    4      CONFINED      HARMONIC     1.000E+00    VERTICAL K  NON-WETTABLE
    5      CONFINED      HARMONIC     1.000E+00    VERTICAL K  NON-WETTABLE

 WETTING CAPABILITY IS NOT ACTIVE IN ANY LAYER

    HYD. COND. ALONG ROWS =   1.00000     FOR LAYER   1

      VERTICAL HYD. COND. =   1.00000     FOR LAYER   1

         SPECIFIC STORAGE =  1.000000E-04 FOR LAYER   1

           SPECIFIC YIELD =  0.100000     FOR LAYER   1

    HYD. COND. ALONG ROWS =   1.00000     FOR LAYER   2

      VERTICAL HYD. COND. =   1.00000     FOR LAYER   2

         SPECIFIC STORAGE =  1.000000E-04 FOR LAYER   2

    HYD. COND. ALONG ROWS =   1.00000     FOR LAYER   3

      VERTICAL HYD. COND. =   1.00000     FOR LAYER   3

         SPECIFIC STORAGE =  1.000000E-04 FOR LAYER   3

    HYD. COND. ALONG ROWS =   1.00000     FOR LAYER   4

      VERTICAL HYD. COND. =   1.00000     FOR LAYER   4

         SPECIFIC STORAGE =  1.000000E-04 FOR LAYER   4

    HYD. COND. ALONG ROWS =   1.00000     FOR LAYER   5

      VERTICAL HYD. COND. =   1.00000     FOR LAYER   5

         SPECIFIC STORAGE =  1.000000E-04 FOR LAYER   5

 WEL -- WELL PACKAGE, VERSION 7, 5/2/2005 INPUT READ FROM UNIT   20
 # WEL package for  MODFLOW-2005, generated by Flopy.
 No named parameters
 MAXIMUM OF      1 ACTIVE WELLS AT ONE TIME


     0 Well parameters

 GHB -- GENERAL-HEAD BOUNDARY PACKAGE, VERSION 7, 5/2/2005
         INPUT READ FROM UNIT   23
 # GHB package for  MODFLOW-2005, generated by Flopy.
 No named parameters
 MAXIMUM OF    100 ACTIVE GHB CELLS AT ONE TIME


     0 GHB parameters

 PCG -- CONJUGATE-GRADIENT SOLUTION PACKAGE, VERSION 7, 5/2/2005
 # PCG package for  MODFLOW-2005, generated by Flopy.
 MAXIMUM OF     50 CALLS OF SOLUTION ROUTINE
 MAXIMUM OF     30 INTERNAL ITERATIONS PER CALL TO SOLUTION ROUTINE
 MATRIX PRECONDITIONING TYPE :    1



                                    SOLUTION BY THE CONJUGATE-GRADIENT METHOD
                                   -------------------------------------------
                    MAXIMUM NUMBER OF CALLS TO PCG ROUTINE =       50
                        MAXIMUM ITERATIONS PER CALL TO PCG =       30
                               MATRIX PRECONDITIONING TYPE =        1
        RELAXATION FACTOR (ONLY USED WITH PRECOND. TYPE 1) =    0.10000E+01
 PARAMETER OF POLYNOMIAL PRECOND. = 2 (2) OR IS CALCULATED :        0
                         HEAD CHANGE CRITERION FOR CLOSURE =    0.10000E-04
                     RESIDUAL CHANGE CRITERION FOR CLOSURE =    0.10000E-04
            PCG HEAD AND RESIDUAL CHANGE PRINTOUT INTERVAL =      999
     PRINTING FROM SOLVER IS LIMITED(1) OR SUPPRESSED (>1) =        3
                            STEADY-STATE DAMPING PARAMETER =    0.10000E+01
                               TRANSIENT DAMPING PARAMETER =    0.10000E+01


 ***Link-MT3DMS Package v7***
 OPENING LINK-MT3DMS OUTPUT FILE: mt3d_link.ftl                                                                                                                                                                                           
 ON UNIT NUMBER:    54
 FILE TYPE: UNFORMATTED
 HEADER OPTION: EXTENDED
 ***Link-MT3DMS Package v7***

1
                            STRESS PERIOD NO.    1, LENGTH =   1.000000    
                            -----------------------------------------------

                              NUMBER OF TIME STEPS =     1

                               MULTIPLIER FOR DELT =     1.000

                            INITIAL TIME STEP SIZE =   1.000000    

 WELL NO.  LAYER   ROW   COL   STRESS RATE         
 --------------------------------------------------
      1      2      6      6       0.000    

      1 WELL 

 BOUND. NO. LAYER   ROW   COL     STAGE      CONDUCTANCE         
 ----------------------------------------------------------------
      1      1      1      1       10.00          0.1100E+05
      2      1      1     10       0.000          0.1000E+05
      3      1      2      1       10.00          0.1100E+05
      4      1      2     10       0.000          0.1000E+05
      5      1      3      1       10.00          0.1100E+05
      6      1      3     10       0.000          0.1000E+05
      7      1      4      1       10.00          0.1100E+05
      8      1      4     10       0.000          0.1000E+05
      9      1      5      1       10.00          0.1100E+05
     10      1      5     10       0.000          0.1000E+05
     11      1      6      1       10.00          0.1100E+05
     12      1      6     10       0.000          0.1000E+05
     13      1      7      1       10.00          0.1100E+05
     14      1      7     10       0.000          0.1000E+05
     15      1      8      1       10.00          0.1100E+05
     16      1      8     10       0.000          0.1000E+05
     17      1      9      1       10.00          0.1100E+05
     18      1      9     10       0.000          0.1000E+05
     19      1     10      1       10.00          0.1100E+05
     20      1     10     10       0.000          0.1000E+05
     21      2      1      1       10.00          0.1100E+05
     22      2      1     10       0.000          0.1000E+05
     23      2      2      1       10.00          0.1100E+05
     24      2      2     10       0.000          0.1000E+05
     25      2      3      1       10.00          0.1100E+05
     26      2      3     10       0.000          0.1000E+05
     27      2      4      1       10.00          0.1100E+05
     28      2      4     10       0.000          0.1000E+05
     29      2      5      1       10.00          0.1100E+05
     30      2      5     10       0.000          0.1000E+05
     31      2      6      1       10.00          0.1100E+05
     32      2      6     10       0.000          0.1000E+05
     33      2      7      1       10.00          0.1100E+05
     34      2      7     10       0.000          0.1000E+05
     35      2      8      1       10.00          0.1100E+05
     36      2      8     10       0.000          0.1000E+05
     37      2      9      1       10.00          0.1100E+05
     38      2      9     10       0.000          0.1000E+05
     39      2     10      1       10.00          0.1100E+05
     40      2     10     10       0.000          0.1000E+05
     41      3      1      1       10.00          0.1100E+05
     42      3      1     10       0.000          0.1000E+05
     43      3      2      1       10.00          0.1100E+05
     44      3      2     10       0.000          0.1000E+05
     45      3      3      1       10.00          0.1100E+05
     46      3      3     10       0.000          0.1000E+05
     47      3      4      1       10.00          0.1100E+05
     48      3      4     10       0.000          0.1000E+05
     49      3      5      1       10.00          0.1100E+05
     50      3      5     10       0.000          0.1000E+05
     51      3      6      1       10.00          0.1100E+05
     52      3      6     10       0.000          0.1000E+05
     53      3      7      1       10.00          0.1100E+05
     54      3      7     10       0.000          0.1000E+05
     55      3      8      1       10.00          0.1100E+05
     56      3      8     10       0.000          0.1000E+05
     57      3      9      1       10.00          0.1100E+05
     58      3      9     10       0.000          0.1000E+05
     59      3     10      1       10.00          0.1100E+05
     60      3     10     10       0.000          0.1000E+05
     61      4      1      1       10.00          0.1100E+05
     62      4      1     10       0.000          0.1000E+05
     63      4      2      1       10.00          0.1100E+05
     64      4      2     10       0.000          0.1000E+05
     65      4      3      1       10.00          0.1100E+05
     66      4      3     10       0.000          0.1000E+05
     67      4      4      1       10.00          0.1100E+05
     68      4      4     10       0.000          0.1000E+05
     69      4      5      1       10.00          0.1100E+05
     70      4      5     10       0.000          0.1000E+05
     71      4      6      1       10.00          0.1100E+05
     72      4      6     10       0.000          0.1000E+05
     73      4      7      1       10.00          0.1100E+05
     74      4      7     10       0.000          0.1000E+05
     75      4      8      1       10.00          0.1100E+05
     76      4      8     10       0.000          0.1000E+05
     77      4      9      1       10.00          0.1100E+05
     78      4      9     10       0.000          0.1000E+05
     79      4     10      1       10.00          0.1100E+05
     80      4     10     10       0.000          0.1000E+05
     81      5      1      1       10.00          0.1100E+05
     82      5      1     10       0.000          0.1000E+05
     83      5      2      1       10.00          0.1100E+05
     84      5      2     10       0.000          0.1000E+05
     85      5      3      1       10.00          0.1100E+05
     86      5      3     10       0.000          0.1000E+05
     87      5      4      1       10.00          0.1100E+05
     88      5      4     10       0.000          0.1000E+05
     89      5      5      1       10.00          0.1100E+05
     90      5      5     10       0.000          0.1000E+05
     91      5      6      1       10.00          0.1100E+05
     92      5      6     10       0.000          0.1000E+05
     93      5      7      1       10.00          0.1100E+05
     94      5      7     10       0.000          0.1000E+05
     95      5      8      1       10.00          0.1100E+05
     96      5      8     10       0.000          0.1000E+05
     97      5      9      1       10.00          0.1100E+05
     98      5      9     10       0.000          0.1000E+05
     99      5     10      1       10.00          0.1100E+05
    100      5     10     10       0.000          0.1000E+05

    100 GHB CELLS
 
 SOLVING FOR HEAD 

 OUTPUT CONTROL FOR STRESS PERIOD    1   TIME STEP    1
    SAVE HEAD FOR ALL LAYERS
    SAVE DRAWDOWN FOR ALL LAYERS
    SAVE BUDGET
    PRINT HEAD FOR ALL LAYERS
    PRINT BUDGET
 UBDSV2 SAVING "   CONSTANT HEAD" ON UNIT  53 AT TIME STEP  1, STRESS PERIOD   1
 UBDSV1 SAVING "FLOW RIGHT FACE " ON UNIT  53 AT TIME STEP  1, STRESS PERIOD   1
 UBDSV1 SAVING "FLOW FRONT FACE " ON UNIT  53 AT TIME STEP  1, STRESS PERIOD   1
 UBDSV1 SAVING "FLOW LOWER FACE " ON UNIT  53 AT TIME STEP  1, STRESS PERIOD   1

 SAVING SATURATED THICKNESS AND FLOW TERMS ON UNIT   54 FOR MT3DMS
 BY THE LINK-MT3DMS PACKAGE V7 AT TIME STEP    1, STRESS PERIOD    1

1
              HEAD IN LAYER   1 AT END OF TIME STEP   1 IN STRESS PERIOD    1
  ---------------------------------------------------------------------------

            1           2           3           4           5           6           7           8           9          10
 ........................................................................................................................
   1    9.998       8.935       7.860       6.773       5.676       4.566       3.445       2.312       1.165      1.5190E-03
   2    9.998       8.935       7.860       6.773       5.676       4.566       3.445       2.312       1.165      1.5190E-03
   3    9.998       8.935       7.860       6.773       5.676       4.566       3.445       2.312       1.165      1.5190E-03
   4    9.998       8.935       7.860       6.773       5.676       4.566       3.445       2.312       1.165      1.5190E-03
   5    9.998       8.935       7.860       6.773       5.676       4.566       3.445       2.312       1.165      1.5190E-03
   6    9.998       8.935       7.860       6.773       5.676       4.566       3.445       2.312       1.165      1.5190E-03
   7    9.998       8.935       7.860       6.773       5.676       4.566       3.445       2.312       1.165      1.5190E-03
   8    9.998       8.935       7.860       6.773       5.676       4.566       3.445       2.312       1.165      1.5190E-03
   9    9.998       8.935       7.860       6.773       5.676       4.566       3.445       2.312       1.165      1.5190E-03
  10    9.998       8.935       7.860       6.773       5.676       4.566       3.445       2.312       1.165      1.5190E-03
1
              HEAD IN LAYER   2 AT END OF TIME STEP   1 IN STRESS PERIOD    1
  ---------------------------------------------------------------------------

            1           2           3           4           5           6           7           8           9          10
 ........................................................................................................................
   1    9.998       8.934       7.858       6.771       5.674       4.564       3.443       2.310       1.163      2.4986E-03
   2    9.998       8.934       7.858       6.771       5.674       4.564       3.443       2.310       1.163      2.4986E-03
   3    9.998       8.934       7.858       6.771       5.674       4.564       3.443       2.310       1.163      2.4986E-03
   4    9.998       8.934       7.858       6.771       5.674       4.564       3.443       2.310       1.163      2.4986E-03
   5    9.998       8.934       7.858       6.771       5.674       4.564       3.443       2.310       1.163      2.4986E-03
   6    9.998       8.934       7.858       6.771       5.674       4.564       3.443       2.310       1.163      2.4986E-03
   7    9.998       8.934       7.858       6.771       5.674       4.564       3.443       2.310       1.163      2.4986E-03
   8    9.998       8.934       7.858       6.771       5.674       4.564       3.443       2.310       1.163      2.4986E-03
   9    9.998       8.934       7.858       6.771       5.674       4.564       3.443       2.310       1.163      2.4986E-03
  10    9.998       8.934       7.858       6.771       5.674       4.564       3.443       2.310       1.163      2.4986E-03
1
              HEAD IN LAYER   3 AT END OF TIME STEP   1 IN STRESS PERIOD    1
  ---------------------------------------------------------------------------

            1           2           3           4           5           6           7           8           9          10
 ........................................................................................................................
   1    9.998       8.932       7.856       6.770       5.672       4.563       3.441       2.308       1.162      2.5478E-03
   2    9.998       8.932       7.856       6.770       5.672       4.563       3.441       2.308       1.162      2.5478E-03
   3    9.998       8.932       7.856       6.770       5.672       4.563       3.441       2.308       1.162      2.5478E-03
   4    9.998       8.932       7.856       6.770       5.672       4.563       3.441       2.308       1.162      2.5478E-03
   5    9.998       8.932       7.856       6.770       5.672       4.563       3.441       2.308       1.162      2.5478E-03
   6    9.998       8.932       7.856       6.770       5.672       4.563       3.441       2.308       1.162      2.5478E-03
   7    9.998       8.932       7.856       6.770       5.672       4.563       3.441       2.308       1.162      2.5478E-03
   8    9.998       8.932       7.856       6.770       5.672       4.563       3.441       2.308       1.162      2.5478E-03
   9    9.998       8.932       7.856       6.770       5.672       4.563       3.441       2.308       1.162      2.5478E-03
  10    9.998       8.932       7.856       6.770       5.672       4.563       3.441       2.308       1.162      2.5478E-03
1
              HEAD IN LAYER   4 AT END OF TIME STEP   1 IN STRESS PERIOD    1
  ---------------------------------------------------------------------------

            1           2           3           4           5           6           7           8           9          10
 ........................................................................................................................
   1    9.998       8.931       7.855       6.769       5.671       4.562       3.440       2.307       1.161      2.5475E-03
   2    9.998       8.931       7.855       6.769       5.671       4.562       3.440       2.307       1.161      2.5475E-03
   3    9.998       8.931       7.855       6.769       5.671       4.562       3.440       2.307       1.161      2.5475E-03
   4    9.998       8.931       7.855       6.769       5.671       4.562       3.440       2.307       1.161      2.5475E-03
   5    9.998       8.931       7.855       6.769       5.671       4.562       3.440       2.307       1.161      2.5475E-03
   6    9.998       8.931       7.855       6.769       5.671       4.562       3.440       2.307       1.161      2.5475E-03
   7    9.998       8.931       7.855       6.769       5.671       4.562       3.440       2.307       1.161      2.5475E-03
   8    9.998       8.931       7.855       6.769       5.671       4.562       3.440       2.307       1.161      2.5475E-03
   9    9.998       8.931       7.855       6.769       5.671       4.562       3.440       2.307       1.161      2.5475E-03
  10    9.998       8.931       7.855       6.769       5.671       4.562       3.440       2.307       1.161      2.5475E-03
1
              HEAD IN LAYER   5 AT END OF TIME STEP   1 IN STRESS PERIOD    1
  ---------------------------------------------------------------------------

            1           2           3           4           5           6           7           8           9          10
 ........................................................................................................................
   1    9.998       8.931       7.855       6.768       5.670       4.561       3.440       2.306       1.160      2.5464E-03
   2    9.998       8.931       7.855       6.768       5.670       4.561       3.440       2.306       1.160      2.5464E-03
   3    9.998       8.931       7.855       6.768       5.670       4.561       3.440       2.306       1.160      2.5464E-03
   4    9.998       8.931       7.855       6.768       5.670       4.561       3.440       2.306       1.160      2.5464E-03
   5    9.998       8.931       7.855       6.768       5.670       4.561       3.440       2.306       1.160      2.5464E-03
   6    9.998       8.931       7.855       6.768       5.670       4.561       3.440       2.306       1.160      2.5464E-03
   7    9.998       8.931       7.855       6.768       5.670       4.561       3.440       2.306       1.160      2.5464E-03
   8    9.998       8.931       7.855       6.768       5.670       4.561       3.440       2.306       1.160      2.5464E-03
   9    9.998       8.931       7.855       6.768       5.670       4.561       3.440       2.306       1.160      2.5464E-03
  10    9.998       8.931       7.855       6.768       5.670       4.561       3.440       2.306       1.160      2.5464E-03

 HEAD WILL BE SAVED ON UNIT   51 AT END OF TIME STEP    1, STRESS PERIOD    1

 DRAWDOWN WILL BE SAVED ON UNIT   52 AT END OF TIME STEP    1, STRESS PERIOD    1
1
  VOLUMETRIC BUDGET FOR ENTIRE MODEL AT END OF TIME STEP    1, STRESS PERIOD   1
  ------------------------------------------------------------------------------

     CUMULATIVE VOLUMES      L**3       RATES FOR THIS TIME STEP      L**3/T
     ------------------                 ------------------------

           IN:                                      IN:
           ---                                      ---
             STORAGE =           0.0000               STORAGE =           0.0000
       CONSTANT HEAD =           0.0000         CONSTANT HEAD =           0.0000
               WELLS =           0.0000                 WELLS =           0.0000
     HEAD DEP BOUNDS =        1165.9294       HEAD DEP BOUNDS =        1165.9294

            TOTAL IN =        1165.9294              TOTAL IN =        1165.9294

          OUT:                                     OUT:
          ----                                     ----
             STORAGE =           0.0000               STORAGE =           0.0000
       CONSTANT HEAD =           0.0000         CONSTANT HEAD =           0.0000
               WELLS =           0.0000                 WELLS =           0.0000
     HEAD DEP BOUNDS =        1165.9294       HEAD DEP BOUNDS =        1165.9294

           TOTAL OUT =        1165.9294             TOTAL OUT =        1165.9294

            IN - OUT =           0.0000              IN - OUT =           0.0000

 PERCENT DISCREPANCY =           0.00     PERCENT DISCREPANCY =           0.00






         TIME SUMMARY AT END OF TIME STEP    1 IN STRESS PERIOD    1
                    SECONDS     MINUTES      HOURS       DAYS        YEARS
                    -----------------------------------------------------------
   TIME STEP LENGTH  86400.      1440.0      24.000      1.0000     2.73785E-03
 STRESS PERIOD TIME  86400.      1440.0      24.000      1.0000     2.73785E-03
         TOTAL TIME  86400.      1440.0      24.000      1.0000     2.73785E-03
1
1
                            STRESS PERIOD NO.    2, LENGTH =   100.0000    
                            -----------------------------------------------

                              NUMBER OF TIME STEPS =   100

                               MULTIPLIER FOR DELT =     1.000

                            INITIAL TIME STEP SIZE =   1.000000    

 WELL NO.  LAYER   ROW   COL   STRESS RATE         
 --------------------------------------------------
      1      2      6      6       100.0    

      1 WELL 

 BOUND. NO. LAYER   ROW   COL     STAGE      CONDUCTANCE         
 ----------------------------------------------------------------
      1      1      1      1       10.00          0.1100E+05
      2      1      1     10       0.000          0.1000E+05
      3      1      2      1       10.00          0.1100E+05
      4      1      2     10       0.000          0.1000E+05
      5      1      3      1       10.00          0.1100E+05
      6      1      3     10       0.000          0.1000E+05
      7      1      4      1       10.00          0.1100E+05
      8      1      4     10       0.000          0.1000E+05
      9      1      5      1       10.00          0.1100E+05
     10      1      5     10       0.000          0.1000E+05
     11      1      6      1       10.00          0.1100E+05
     12      1      6     10       0.000          0.1000E+05
     13      1      7      1       10.00          0.1100E+05
     14      1      7     10       0.000          0.1000E+05
     15      1      8      1       10.00          0.1100E+05
     16      1      8     10       0.000          0.1000E+05
     17      1      9      1       10.00          0.1100E+05
     18      1      9     10       0.000          0.1000E+05
     19      1     10      1       10.00          0.1100E+05
     20      1     10     10       0.000          0.1000E+05
     21      2      1      1       10.00          0.1100E+05
     22      2      1     10       0.000          0.1000E+05
     23      2      2      1       10.00          0.1100E+05
     24      2      2     10       0.000          0.1000E+05
     25      2      3      1       10.00          0.1100E+05
     26      2      3     10       0.000          0.1000E+05
     27      2      4      1       10.00          0.1100E+05
     28      2      4     10       0.000          0.1000E+05
     29      2      5      1       10.00          0.1100E+05
     30      2      5     10       0.000          0.1000E+05
     31      2      6      1       10.00          0.1100E+05
     32      2      6     10       0.000          0.1000E+05
     33      2      7      1       10.00          0.1100E+05
     34      2      7     10       0.000          0.1000E+05
     35      2      8      1       10.00          0.1100E+05
     36      2      8     10       0.000          0.1000E+05
     37      2      9      1       10.00          0.1100E+05
     38      2      9     10       0.000          0.1000E+05
     39      2     10      1       10.00          0.1100E+05
     40      2     10     10       0.000          0.1000E+05
     41      3      1      1       10.00          0.1100E+05
     42      3      1     10       0.000          0.1000E+05
     43      3      2      1       10.00          0.1100E+05
     44      3      2     10       0.000          0.1000E+05
     45      3      3      1       10.00          0.1100E+05
     46      3      3     10       0.000          0.1000E+05
     47      3      4      1       10.00          0.1100E+05
     48      3      4     10       0.000          0.1000E+05
     49      3      5      1       10.00          0.1100E+05
     50      3      5     10       0.000          0.1000E+05
     51      3      6      1       10.00          0.1100E+05
     52      3      6     10       0.000          0.1000E+05
     53      3      7      1       10.00          0.1100E+05
     54      3      7     10       0.000          0.1000E+05
     55      3      8      1       10.00          0.1100E+05
     56      3      8     10       0.000          0.1000E+05
     57      3      9      1       10.00          0.1100E+05
     58      3      9     10       0.000          0.1000E+05
     59      3     10      1       10.00          0.1100E+05
     60      3     10     10       0.000          0.1000E+05
     61      4      1      1       10.00          0.1100E+05
     62      4      1     10       0.000          0.1000E+05
     63      4      2      1       10.00          0.1100E+05
     64      4      2     10       0.000          0.1000E+05
     65      4      3      1       10.00          0.1100E+05
     66      4      3     10       0.000          0.1000E+05
     67      4      4      1       10.00          0.1100E+05
     68      4      4     10       0.000          0.1000E+05
     69      4      5      1       10.00          0.1100E+05
     70      4      5     10       0.000          0.1000E+05
     71      4      6      1       10.00          0.1100E+05
     72      4      6     10       0.000          0.1000E+05
     73      4      7      1       10.00          0.1100E+05
     74      4      7     10       0.000          0.1000E+05
     75      4      8      1       10.00          0.1100E+05
     76      4      8     10       0.000          0.1000E+05
     77      4      9      1       10.00          0.1100E+05
     78      4      9     10       0.000          0.1000E+05
     79      4     10      1       10.00          0.1100E+05
     80      4     10     10       0.000          0.1000E+05
     81      5      1      1       10.00          0.1100E+05
     82      5      1     10       0.000          0.1000E+05
     83      5      2      1       10.00          0.1100E+05
     84      5      2     10       0.000          0.1000E+05
     85      5      3      1       10.00          0.1100E+05
     86      5      3     10       0.000          0.1000E+05
     87      5      4      1       10.00          0.1100E+05
     88      5      4     10       0.000          0.1000E+05
     89      5      5      1       10.00          0.1100E+05
     90      5      5     10       0.000          0.1000E+05
     91      5      6      1       10.00          0.1100E+05
     92      5      6     10       0.000          0.1000E+05
     93      5      7      1       10.00          0.1100E+05
     94      5      7     10       0.000          0.1000E+05
     95      5      8      1       10.00          0.1100E+05
     96      5      8     10       0.000          0.1000E+05
     97      5      9      1       10.00          0.1100E+05
     98      5      9     10       0.000          0.1000E+05
     99      5     10      1       10.00          0.1100E+05
    100      5     10     10       0.000          0.1000E+05

    100 GHB CELLS
 
 SOLVING FOR HEAD 

 OUTPUT CONTROL FOR STRESS PERIOD    2   TIME STEP    1
    SAVE HEAD FOR ALL LAYERS
    SAVE DRAWDOWN FOR ALL LAYERS
    SAVE BUDGET
    PRINT HEAD FOR ALL LAYERS
    PRINT BUDGET
 UBDSV1 SAVING "         STORAGE" ON UNIT  53 AT TIME STEP  1, STRESS PERIOD   2
 UBDSV2 SAVING "   CONSTANT HEAD" ON UNIT  53 AT TIME STEP  1, STRESS PERIOD   2
 UBDSV1 SAVING "FLOW RIGHT FACE " ON UNIT  53 AT TIME STEP  1, STRESS PERIOD   2
 UBDSV1 SAVING "FLOW FRONT FACE " ON UNIT  53 AT TIME STEP  1, STRESS PERIOD   2
 UBDSV1 SAVING "FLOW LOWER FACE " ON UNIT  53 AT TIME STEP  1, STRESS PERIOD   2

 SAVING SATURATED THICKNESS AND FLOW TERMS ON UNIT   54 FOR MT3DMS
 BY THE LINK-MT3DMS PACKAGE V7 AT TIME STEP    1, STRESS PERIOD    2

1
              HEAD IN LAYER   1 AT END OF TIME STEP   1 IN STRESS PERIOD    2
  ---------------------------------------------------------------------------

            1           2           3           4           5           6           7           8           9          10
 ........................................................................................................................
   1    9.998       8.935       7.860       6.773       5.676       4.566       3.445       2.312       1.165      1.5190E-03
   2    9.998       8.935       7.860       6.773       5.676       4.566       3.445       2.312       1.165      1.5190E-03
   3    9.998       8.935       7.860       6.773       5.676       4.567       3.445       2.312       1.165      1.5190E-03
   4    9.998       8.935       7.860       6.774       5.676       4.567       3.446       2.312       1.165      1.5190E-03
   5    9.998       8.935       7.860       6.774       5.677       4.571       3.446       2.312       1.165      1.5191E-03
   6    9.998       8.935       7.860       6.774       5.680       4.621       3.450       2.312       1.165      1.5191E-03
   7    9.998       8.935       7.860       6.774       5.677       4.571       3.446       2.312       1.165      1.5191E-03
   8    9.998       8.935       7.860       6.774       5.676       4.567       3.446       2.312       1.165      1.5190E-03
   9    9.998       8.935       7.860       6.773       5.676       4.567       3.445       2.312       1.165      1.5190E-03
  10    9.998       8.935       7.860       6.773       5.676       4.566       3.445       2.312       1.165      1.5190E-03
1
              HEAD IN LAYER   2 AT END OF TIME STEP   1 IN STRESS PERIOD    2
  ---------------------------------------------------------------------------

            1           2           3           4           5           6           7           8           9          10
 ........................................................................................................................
   1    9.998       8.934       7.858       6.771       5.674       4.564       3.443       2.310       1.163      2.4986E-03
   2    9.998       8.934       7.858       6.771       5.674       4.564       3.443       2.310       1.163      2.4986E-03
   3    9.998       8.934       7.858       6.771       5.674       4.565       3.443       2.310       1.163      2.4986E-03
   4    9.998       8.934       7.858       6.772       5.674       4.566       3.444       2.310       1.163      2.4987E-03
   5    9.998       8.934       7.858       6.772       5.676       4.577       3.446       2.310       1.164      2.4988E-03
   6    9.998       8.934       7.858       6.773       5.686       4.731       3.455       2.311       1.164      2.4990E-03
   7    9.998       8.934       7.858       6.772       5.676       4.577       3.446       2.310       1.164      2.4988E-03
   8    9.998       8.934       7.858       6.772       5.674       4.566       3.444       2.310       1.163      2.4987E-03
   9    9.998       8.934       7.858       6.771       5.674       4.565       3.443       2.310       1.163      2.4986E-03
  10    9.998       8.934       7.858       6.771       5.674       4.564       3.443       2.310       1.163      2.4986E-03
1
              HEAD IN LAYER   3 AT END OF TIME STEP   1 IN STRESS PERIOD    2
  ---------------------------------------------------------------------------

            1           2           3           4           5           6           7           8           9          10
 ........................................................................................................................
   1    9.998       8.932       7.856       6.770       5.672       4.563       3.441       2.308       1.162      2.5478E-03
   2    9.998       8.932       7.856       6.770       5.672       4.563       3.442       2.308       1.162      2.5478E-03
   3    9.998       8.932       7.856       6.770       5.672       4.563       3.442       2.308       1.162      2.5478E-03
   4    9.998       8.932       7.856       6.770       5.673       4.565       3.442       2.308       1.162      2.5479E-03
   5    9.998       8.932       7.857       6.771       5.676       4.578       3.446       2.309       1.162      2.5482E-03
   6    9.998       8.932       7.857       6.772       5.687       4.675       3.457       2.310       1.162      2.5485E-03
   7    9.998       8.932       7.857       6.771       5.676       4.578       3.446       2.309       1.162      2.5482E-03
   8    9.998       8.932       7.856       6.770       5.673       4.565       3.442       2.308       1.162      2.5479E-03
   9    9.998       8.932       7.856       6.770       5.672       4.563       3.442       2.308       1.162      2.5478E-03
  10    9.998       8.932       7.856       6.770       5.672       4.563       3.442       2.308       1.162      2.5478E-03
1
              HEAD IN LAYER   4 AT END OF TIME STEP   1 IN STRESS PERIOD    2
  ---------------------------------------------------------------------------

            1           2           3           4           5           6           7           8           9          10
 ........................................................................................................................
   1    9.998       8.931       7.855       6.769       5.671       4.562       3.440       2.307       1.161      2.5475E-03
   2    9.998       8.931       7.855       6.769       5.671       4.562       3.440       2.307       1.161      2.5475E-03
   3    9.998       8.931       7.855       6.769       5.671       4.562       3.441       2.307       1.161      2.5476E-03
   4    9.998       8.931       7.855       6.769       5.672       4.564       3.441       2.307       1.161      2.5477E-03
   5    9.998       8.931       7.856       6.770       5.676       4.578       3.445       2.308       1.161      2.5480E-03
   6    9.998       8.931       7.856       6.771       5.687       4.644       3.456       2.309       1.161      2.5485E-03
   7    9.998       8.931       7.856       6.770       5.676       4.578       3.445       2.308       1.161      2.5480E-03
   8    9.998       8.931       7.855       6.769       5.672       4.564       3.441       2.307       1.161      2.5477E-03
   9    9.998       8.931       7.855       6.769       5.671       4.562       3.441       2.307       1.161      2.5476E-03
  10    9.998       8.931       7.855       6.769       5.671       4.562       3.440       2.307       1.161      2.5476E-03
1
              HEAD IN LAYER   5 AT END OF TIME STEP   1 IN STRESS PERIOD    2
  ---------------------------------------------------------------------------

            1           2           3           4           5           6           7           8           9          10
 ........................................................................................................................
   1    9.998       8.931       7.855       6.768       5.670       4.561       3.440       2.306       1.160      2.5464E-03
   2    9.998       8.931       7.855       6.768       5.670       4.561       3.440       2.306       1.160      2.5464E-03
   3    9.998       8.931       7.855       6.768       5.671       4.562       3.440       2.306       1.160      2.5465E-03
   4    9.998       8.931       7.855       6.769       5.672       4.564       3.441       2.306       1.160      2.5466E-03
   5    9.998       8.931       7.855       6.770       5.676       4.577       3.445       2.307       1.160      2.5470E-03
   6    9.998       8.931       7.855       6.771       5.686       4.629       3.456       2.309       1.160      2.5475E-03
   7    9.998       8.931       7.855       6.770       5.676       4.577       3.445       2.307       1.160      2.5470E-03
   8    9.998       8.931       7.855       6.769       5.672       4.564       3.441       2.306       1.160      2.5466E-03
   9    9.998       8.931       7.855       6.768       5.671       4.562       3.440       2.306       1.160      2.5465E-03
  10    9.998       8.931       7.855       6.768       5.670       4.561       3.440       2.306       1.160      2.5464E-03

 HEAD WILL BE SAVED ON UNIT   51 AT END OF TIME STEP    1, STRESS PERIOD    2

 DRAWDOWN WILL BE SAVED ON UNIT   52 AT END OF TIME STEP    1, STRESS PERIOD    2
1
  VOLUMETRIC BUDGET FOR ENTIRE MODEL AT END OF TIME STEP    1, STRESS PERIOD   2
  ------------------------------------------------------------------------------

     CUMULATIVE VOLUMES      L**3       RATES FOR THIS TIME STEP      L**3/T
     ------------------                 ------------------------

           IN:                                      IN:
           ---                                      ---
             STORAGE =           0.0000               STORAGE =           0.0000
       CONSTANT HEAD =           0.0000         CONSTANT HEAD =           0.0000
               WELLS =         100.0000                 WELLS =         100.0000
     HEAD DEP BOUNDS =        2331.8735       HEAD DEP BOUNDS =        1165.9442

            TOTAL IN =        2431.8735              TOTAL IN =        1265.9442

          OUT:                                     OUT:
          ----                                     ----
             STORAGE =          99.8882               STORAGE =          99.8882
       CONSTANT HEAD =           0.0000         CONSTANT HEAD =           0.0000
               WELLS =           0.0000                 WELLS =           0.0000
     HEAD DEP BOUNDS =        2331.9497       HEAD DEP BOUNDS =        1166.0204

           TOTAL OUT =        2431.8379             TOTAL OUT =        1265.9086

            IN - OUT =       3.5645E-02              IN - OUT =       3.5645E-02

 PERCENT DISCREPANCY =           0.00     PERCENT DISCREPANCY =           0.00






         TIME SUMMARY AT END OF TIME STEP    1 IN STRESS PERIOD    2
                    SECONDS     MINUTES      HOURS       DAYS        YEARS
                    -----------------------------------------------------------
   TIME STEP LENGTH  86400.      1440.0      24.000      1.0000     2.73785E-03
 STRESS PERIOD TIME  86400.      1440.0      24.000      1.0000     2.73785E-03
         TOTAL TIME 1.72800E+05  2880.0      48.000      2.0000     5.47570E-03
1
 
 SOLVING FOR HEAD 

 OUTPUT CONTROL FOR STRESS PERIOD    2   TIME STEP    2
    SAVE HEAD FOR ALL LAYERS
    SAVE DRAWDOWN FOR ALL LAYERS
    SAVE BUDGET
    PRINT HEAD FOR ALL LAYERS
    PRINT BUDGET
 UBDSV1 SAVING "         STORAGE" ON UNIT  53 AT TIME STEP  2, STRESS PERIOD   2
 UBDSV2 SAVING "   CONSTANT HEAD" ON UNIT  53 AT TIME STEP  2, STRESS PERIOD   2
 UBDSV1 SAVING "FLOW RIGHT FACE " ON UNIT  53 AT TIME STEP  2, STRESS PERIOD   2
 UBDSV1 SAVING "FLOW FRONT FACE " ON UNIT  53 AT TIME STEP  2, STRESS PERIOD   2
 UBDSV1 SAVING "FLOW LOWER FACE " ON UNIT  53 AT TIME STEP  2, STRESS PERIOD   2

 SAVING SATURATED THICKNESS AND FLOW TERMS ON UNIT   54 FOR MT3DMS
 BY THE LINK-MT3DMS PACKAGE V7 AT TIME STEP    2, STRESS PERIOD    2

1
              HEAD IN LAYER   1 AT END OF TIME STEP   2 IN STRESS PERIOD    2
  ---------------------------------------------------------------------------

            1           2           3           4           5           6           7           8           9          10
 ........................................................................................................................
   1    9.998       8.935       7.860       6.773       5.676       4.566       3.445       2.312       1.165      1.5190E-03
   2    9.998       8.935       7.860       6.773       5.676       4.567       3.445       2.312       1.165      1.5190E-03
   3    9.998       8.935       7.860       6.774       5.676       4.567       3.445       2.312       1.165      1.5190E-03
   4    9.998       8.935       7.860       6.774       5.676       4.568       3.446       2.312       1.165      1.5191E-03
   5    9.998       8.935       7.860       6.774       5.678       4.577       3.448       2.312       1.165      1.5192E-03
   6    9.998       8.935       7.860       6.775       5.686       4.670       3.456       2.313       1.166      1.5194E-03
   7    9.998       8.935       7.860       6.774       5.678       4.577       3.448       2.312       1.165      1.5192E-03
   8    9.998       8.935       7.860       6.774       5.676       4.568       3.446       2.312       1.165      1.5191E-03
   9    9.998       8.935       7.860       6.774       5.676       4.567       3.445       2.312       1.165      1.5190E-03
  10    9.998       8.935       7.860       6.773       5.676       4.567       3.445       2.312       1.165      1.5190E-03
1
              HEAD IN LAYER   2 AT END OF TIME STEP   2 IN STRESS PERIOD    2
  ---------------------------------------------------------------------------

            1           2           3           4           5           6           7           8           9          10
 ........................................................................................................................
   1    9.998       8.934       7.858       6.771       5.674       4.564       3.443       2.310       1.163      2.4986E-03
   2    9.998       8.934       7.858       6.771       5.674       4.565       3.443       2.310       1.163      2.4986E-03
   3    9.998       8.934       7.858       6.772       5.674       4.565       3.444       2.310       1.163      2.4987E-03
   4    9.998       8.934       7.858       6.772       5.675       4.567       3.445       2.310       1.163      2.4988E-03
   5    9.998       8.934       7.858       6.773       5.679       4.585       3.449       2.311       1.164      2.4992E-03
   6    9.998       8.934       7.859       6.775       5.694       4.774       3.463       2.313       1.164      2.4997E-03
   7    9.998       8.934       7.858       6.773       5.679       4.585       3.449       2.311       1.164      2.4992E-03
   8    9.998       8.934       7.858       6.772       5.675       4.567       3.445       2.310       1.163      2.4988E-03
   9    9.998       8.934       7.858       6.772       5.674       4.565       3.444       2.310       1.163      2.4987E-03
  10    9.998       8.934       7.858       6.771       5.674       4.565       3.443       2.310       1.163      2.4986E-03
1
              HEAD IN LAYER   3 AT END OF TIME STEP   2 IN STRESS PERIOD    2
  ---------------------------------------------------------------------------

            1           2           3           4           5           6           7           8           9          10
 ........................................................................................................................
   1    9.998       8.932       7.856       6.770       5.672       4.563       3.442       2.308       1.162      2.5478E-03
   2    9.998       8.932       7.856       6.770       5.672       4.563       3.442       2.308       1.162      2.5478E-03
   3    9.998       8.932       7.856       6.770       5.673       4.564       3.442       2.308       1.162      2.5479E-03
   4    9.998       8.932       7.857       6.771       5.674       4.567       3.443       2.309       1.162      2.5482E-03
   5    9.998       8.932       7.857       6.772       5.680       4.587       3.449       2.310       1.162      2.5487E-03
   6    9.998       8.932       7.857       6.774       5.697       4.712       3.466       2.312       1.162      2.5495E-03
   7    9.998       8.932       7.857       6.772       5.680       4.587       3.449       2.310       1.162      2.5487E-03
   8    9.998       8.932       7.857       6.771       5.674       4.567       3.443       2.309       1.162      2.5482E-03
   9    9.998       8.932       7.856       6.770       5.673       4.564       3.442       2.308       1.162      2.5479E-03
  10    9.998       8.932       7.856       6.770       5.672       4.563       3.442       2.308       1.162      2.5478E-03
1
              HEAD IN LAYER   4 AT END OF TIME STEP   2 IN STRESS PERIOD    2
  ---------------------------------------------------------------------------

            1           2           3           4           5           6           7           8           9          10
 ........................................................................................................................
   1    9.998       8.931       7.855       6.769       5.671       4.562       3.440       2.307       1.161      2.5475E-03
   2    9.998       8.931       7.855       6.769       5.671       4.562       3.440       2.307       1.161      2.5476E-03
   3    9.998       8.931       7.855       6.769       5.672       4.563       3.441       2.307       1.161      2.5477E-03
   4    9.998       8.931       7.856       6.770       5.673       4.567       3.443       2.308       1.161      2.5480E-03
   5    9.998       8.931       7.856       6.771       5.680       4.588       3.450       2.309       1.161      2.5487E-03
   6    9.998       8.931       7.856       6.774       5.697       4.677       3.466       2.312       1.161      2.5496E-03
   7    9.998       8.931       7.856       6.771       5.680       4.588       3.450       2.309       1.161      2.5487E-03
   8    9.998       8.931       7.856       6.770       5.673       4.567       3.443       2.308       1.161      2.5480E-03
   9    9.998       8.931       7.855       6.769       5.672       4.563       3.441       2.307       1.161      2.5477E-03
  10    9.998       8.931       7.855       6.769       5.671       4.562       3.440       2.307       1.161      2.5476E-03
1
              HEAD IN LAYER   5 AT END OF TIME STEP   2 IN STRESS PERIOD    2
  ---------------------------------------------------------------------------

            1           2           3           4           5           6           7           8           9          10
 ........................................................................................................................
   1    9.998       8.931       7.855       6.768       5.670       4.561       3.440       2.306       1.160      2.5464E-03
   2    9.998       8.931       7.855       6.768       5.671       4.561       3.440       2.306       1.160      2.5465E-03
   3    9.998       8.931       7.855       6.768       5.671       4.562       3.440       2.306       1.160      2.5466E-03
   4    9.998       8.931       7.855       6.769       5.673       4.567       3.442       2.307       1.160      2.5469E-03
   5    9.998       8.931       7.856       6.771       5.680       4.588       3.450       2.309       1.161      2.5477E-03
   6    9.998       8.931       7.856       6.774       5.697       4.660       3.466       2.312       1.161      2.5487E-03
   7    9.998       8.931       7.856       6.771       5.680       4.588       3.450       2.309       1.161      2.5477E-03
   8    9.998       8.931       7.855       6.769       5.673       4.567       3.442       2.307       1.160      2.5469E-03
   9    9.998       8.931       7.855       6.768       5.671       4.562       3.440       2.306       1.160      2.5466E-03
  10    9.998       8.931       7.855       6.768       5.671       4.561       3.440       2.306       1.160      2.5465E-03

 HEAD WILL BE SAVED ON UNIT   51 AT END OF TIME STEP    2, STRESS PERIOD    2

 DRAWDOWN WILL BE SAVED ON UNIT   52 AT END OF TIME STEP    2, STRESS PERIOD    2
1
  VOLUMETRIC BUDGET FOR ENTIRE MODEL AT END OF TIME STEP    2, STRESS PERIOD   2
  ------------------------------------------------------------------------------

     CUMULATIVE VOLUMES      L**3       RATES FOR THIS TIME STEP      L**3/T
     ------------------                 ------------------------

           IN:                                      IN:
           ---                                      ---
             STORAGE =           0.0000               STORAGE =           0.0000
       CONSTANT HEAD =           0.0000         CONSTANT HEAD =           0.0000
               WELLS =         200.0000                 WELLS =         100.0000
     HEAD DEP BOUNDS =        3497.7852       HEAD DEP BOUNDS =        1165.9116

            TOTAL IN =        3697.7852              TOTAL IN =        1265.9116

          OUT:                                     OUT:
          ----                                     ----
             STORAGE =         199.6282               STORAGE =          99.7400
       CONSTANT HEAD =           0.0000         CONSTANT HEAD =           0.0000
               WELLS =           0.0000                 WELLS =           0.0000
     HEAD DEP BOUNDS =        3498.0908       HEAD DEP BOUNDS =        1166.1412

           TOTAL OUT =        3697.7190             TOTAL OUT =        1265.8812

            IN - OUT =       6.6162E-02              IN - OUT =       3.0396E-02

 PERCENT DISCREPANCY =           0.00     PERCENT DISCREPANCY =           0.00






         TIME SUMMARY AT END OF TIME STEP    2 IN STRESS PERIOD    2
                    SECONDS     MINUTES      HOURS       DAYS        YEARS
                    -----------------------------------------------------------
   TIME STEP LENGTH  86400.      1440.0      24.000      1.0000     2.73785E-03
 STRESS PERIOD TIME 1.72800E+05  2880.0      48.000      2.0000     5.47570E-03
         TOTAL TIME 2.59200E+05  4320.0      72.000      3.0000     8.21355E-03
1
 
 SOLVING FOR HEAD 

 OUTPUT CONTROL FOR STRESS PERIOD    2   TIME STEP    3
    SAVE HEAD FOR ALL LAYERS
    SAVE DRAWDOWN FOR ALL LAYERS
    SAVE BUDGET
    PRINT HEAD FOR ALL LAYERS
    PRINT BUDGET
 UBDSV1 SAVING "         STORAGE" ON UNIT  53 AT TIME STEP  3, STRESS PERIOD   2
 UBDSV2 SAVING "   CONSTANT HEAD" ON UNIT  53 AT TIME STEP  3, STRESS PERIOD   2
 UBDSV1 SAVING "FLOW RIGHT FACE " ON UNIT  53 AT TIME STEP  3, STRESS PERIOD   2
 UBDSV1 SAVING "FLOW FRONT FACE " ON UNIT  53 AT TIME STEP  3, STRESS PERIOD   2
 UBDSV1 SAVING "FLOW LOWER FACE " ON UNIT  53 AT TIME STEP  3, STRESS PERIOD   2

 SAVING SATURATED THICKNESS AND FLOW TERMS ON UNIT   54 FOR MT3DMS
 BY THE LINK-MT3DMS PACKAGE V7 AT TIME STEP    3, STRESS PERIOD    2

1
              HEAD IN LAYER   1 AT END OF TIME STEP   3 IN STRESS PERIOD    2
  ---------------------------------------------------------------------------

            1           2           3           4           5           6           7           8           9          10
 ........................................................................................................................
   1    9.998       8.935       7.860       6.773       5.676       4.566       3.445       2.312       1.165      1.5190E-03
   2    9.998       8.935       7.860       6.773       5.676       4.567       3.445       2.312       1.165      1.5190E-03
   3    9.998       8.935       7.860       6.774       5.676       4.567       3.446       2.312       1.165      1.5191E-03
   4    9.998       8.935       7.860       6.774       5.677       4.569       3.446       2.312       1.165      1.5192E-03
   5    9.998       8.935       7.860       6.775       5.681       4.584       3.450       2.313       1.166      1.5194E-03
   6    9.998       8.936       7.860       6.776       5.693       4.711       3.463       2.314       1.166      1.5197E-03
   7    9.998       8.935       7.860       6.775       5.681       4.584       3.450       2.313       1.166      1.5194E-03
   8    9.998       8.935       7.860       6.774       5.677       4.569       3.446       2.312       1.165      1.5192E-03
   9    9.998       8.935       7.860       6.774       5.676       4.567       3.446       2.312       1.165      1.5191E-03
  10    9.998       8.935       7.860       6.773       5.676       4.567       3.445       2.312       1.165      1.5190E-03
1
              HEAD IN LAYER   2 AT END OF TIME STEP   3 IN STRESS PERIOD    2
  ---------------------------------------------------------------------------

            1           2           3           4           5           6           7           8           9          10
 ........................................................................................................................
   1    9.998       8.934       7.858       6.771       5.674       4.565       3.443       2.310       1.163      2.4986E-03
   2    9.998       8.934       7.858       6.772       5.674       4.565       3.443       2.310       1.163      2.4986E-03
   3    9.998       8.934       7.858       6.772       5.674       4.565       3.444       2.310       1.163      2.4987E-03
   4    9.998       8.934       7.858       6.772       5.676       4.569       3.445       2.311       1.164      2.4990E-03
   5    9.998       8.934       7.859       6.774       5.682       4.592       3.452       2.312       1.164      2.4996E-03
   6    9.998       8.934       7.859       6.776       5.702       4.806       3.471       2.314       1.164      2.5004E-03
   7    9.998       8.934       7.859       6.774       5.682       4.592       3.452       2.312       1.164      2.4996E-03
   8    9.998       8.934       7.858       6.772       5.676       4.569       3.445       2.311       1.164      2.4990E-03
   9    9.998       8.934       7.858       6.772       5.674       4.565       3.444       2.310       1.163      2.4987E-03
  10    9.998       8.934       7.858       6.772       5.674       4.565       3.443       2.310       1.163      2.4986E-03
1
              HEAD IN LAYER   3 AT END OF TIME STEP   3 IN STRESS PERIOD    2
  ---------------------------------------------------------------------------

            1           2           3           4           5           6           7           8           9          10
 ........................................................................................................................
   1    9.998       8.932       7.856       6.770       5.672       4.563       3.442       2.308       1.162      2.5478E-03
   2    9.998       8.932       7.856       6.770       5.672       4.563       3.442       2.308       1.162      2.5479E-03
   3    9.998       8.932       7.857       6.770       5.673       4.564       3.442       2.308       1.162      2.5480E-03
   4    9.998       8.932       7.857       6.771       5.675       4.569       3.445       2.309       1.162      2.5484E-03
   5    9.998       8.932       7.857       6.773       5.683       4.595       3.453       2.311       1.162      2.5494E-03
   6    9.998       8.932       7.858       6.776       5.705       4.738       3.474       2.314       1.163      2.5504E-03
   7    9.998       8.932       7.857       6.773       5.683       4.595       3.453       2.311       1.162      2.5494E-03
   8    9.998       8.932       7.857       6.771       5.675       4.569       3.445       2.309       1.162      2.5484E-03
   9    9.998       8.932       7.857       6.770       5.673       4.564       3.442       2.308       1.162      2.5480E-03
  10    9.998       8.932       7.856       6.770       5.672       4.563       3.442       2.308       1.162      2.5479E-03
1
              HEAD IN LAYER   4 AT END OF TIME STEP   3 IN STRESS PERIOD    2
  ---------------------------------------------------------------------------

            1           2           3           4           5           6           7           8           9          10
 ........................................................................................................................
   1    9.998       8.931       7.855       6.769       5.671       4.562       3.440       2.307       1.161      2.5476E-03
   2    9.998       8.931       7.855       6.769       5.671       4.562       3.441       2.307       1.161      2.5476E-03
   3    9.998       8.931       7.856       6.769       5.672       4.563       3.441       2.307       1.161      2.5478E-03
   4    9.998       8.931       7.856       6.770       5.675       4.569       3.444       2.308       1.161      2.5483E-03
   5    9.998       8.932       7.856       6.773       5.684       4.596       3.453       2.310       1.161      2.5495E-03
   6    9.998       8.932       7.857       6.776       5.705       4.698       3.474       2.314       1.162      2.5508E-03
   7    9.998       8.932       7.856       6.773       5.684       4.596       3.453       2.310       1.161      2.5495E-03
   8    9.998       8.931       7.856       6.770       5.675       4.569       3.444       2.308       1.161      2.5483E-03
   9    9.998       8.931       7.856       6.769       5.672       4.563       3.441       2.307       1.161      2.5478E-03
  10    9.998       8.931       7.855       6.769       5.671       4.562       3.441       2.307       1.161      2.5476E-03
1
              HEAD IN LAYER   5 AT END OF TIME STEP   3 IN STRESS PERIOD    2
  ---------------------------------------------------------------------------

            1           2           3           4           5           6           7           8           9          10
 ........................................................................................................................
   1    9.998       8.931       7.855       6.768       5.670       4.561       3.440       2.306       1.160      2.5465E-03
   2    9.998       8.931       7.855       6.768       5.671       4.561       3.440       2.306       1.160      2.5465E-03
   3    9.998       8.931       7.855       6.769       5.671       4.563       3.441       2.307       1.160      2.5467E-03
   4    9.998       8.931       7.855       6.770       5.674       4.569       3.444       2.308       1.160      2.5473E-03
   5    9.998       8.931       7.856       6.772       5.684       4.596       3.454       2.310       1.161      2.5486E-03
   6    9.998       8.931       7.857       6.776       5.705       4.680       3.474       2.314       1.162      2.5499E-03
   7    9.998       8.931       7.856       6.772       5.684       4.596       3.454       2.310       1.161      2.5486E-03
   8    9.998       8.931       7.855       6.770       5.674       4.569       3.444       2.308       1.160      2.5473E-03
   9    9.998       8.931       7.855       6.769       5.671       4.563       3.441       2.307       1.160      2.5467E-03
  10    9.998       8.931       7.855       6.768       5.671       4.561       3.440       2.306       1.160      2.5465E-03

 HEAD WILL BE SAVED ON UNIT   51 AT END OF TIME STEP    3, STRESS PERIOD    2

 DRAWDOWN WILL BE SAVED ON UNIT   52 AT END OF TIME STEP    3, STRESS PERIOD    2
1
  VOLUMETRIC BUDGET FOR ENTIRE MODEL AT END OF TIME STEP    3, STRESS PERIOD   2
  ------------------------------------------------------------------------------

     CUMULATIVE VOLUMES      L**3       RATES FOR THIS TIME STEP      L**3/T
     ------------------                 ------------------------

           IN:                                      IN:
           ---                                      ---
             STORAGE =           0.0000               STORAGE =           0.0000
       CONSTANT HEAD =           0.0000         CONSTANT HEAD =           0.0000
               WELLS =         300.0000                 WELLS =         100.0000
     HEAD DEP BOUNDS =        4663.6543       HEAD DEP BOUNDS =        1165.8693

            TOTAL IN =        4963.6543              TOTAL IN =        1265.8693

          OUT:                                     OUT:
          ----                                     ----
             STORAGE =         299.1847               STORAGE =          99.5565
       CONSTANT HEAD =           0.0000         CONSTANT HEAD =           0.0000
               WELLS =           0.0000                 WELLS =           0.0000
     HEAD DEP BOUNDS =        4664.3730       HEAD DEP BOUNDS =        1166.2820

           TOTAL OUT =        4963.5576             TOTAL OUT =        1265.8385

            IN - OUT =       9.6680E-02              IN - OUT =       3.0762E-02

 PERCENT DISCREPANCY =           0.00     PERCENT DISCREPANCY =           0.00






         TIME SUMMARY AT END OF TIME STEP    3 IN STRESS PERIOD    2
                    SECONDS     MINUTES      HOURS       DAYS        YEARS
                    -----------------------------------------------------------
   TIME STEP LENGTH  86400.      1440.0      24.000      1.0000     2.73785E-03
 STRESS PERIOD TIME 2.59200E+05  4320.0      72.000      3.0000     8.21355E-03
         TOTAL TIME 3.45600E+05  5760.0      96.000      4.0000     1.09514E-02
1
 
 SOLVING FOR HEAD 

 OUTPUT CONTROL FOR STRESS PERIOD    2   TIME STEP    4
    SAVE HEAD FOR ALL LAYERS
    SAVE DRAWDOWN FOR ALL LAYERS
    SAVE BUDGET
    PRINT HEAD FOR ALL LAYERS
    PRINT BUDGET
 UBDSV1 SAVING "         STORAGE" ON UNIT  53 AT TIME STEP  4, STRESS PERIOD   2
 UBDSV2 SAVING "   CONSTANT HEAD" ON UNIT  53 AT TIME STEP  4, STRESS PERIOD   2
 UBDSV1 SAVING "FLOW RIGHT FACE " ON UNIT  53 AT TIME STEP  4, STRESS PERIOD   2
 UBDSV1 SAVING "FLOW FRONT FACE " ON UNIT  53 AT TIME STEP  4, STRESS PERIOD   2
 UBDSV1 SAVING "FLOW LOWER FACE " ON UNIT  53 AT TIME STEP  4, STRESS PERIOD   2

 SAVING SATURATED THICKNESS AND FLOW TERMS ON UNIT   54 FOR MT3DMS
 BY THE LINK-MT3DMS PACKAGE V7 AT TIME STEP    4, STRESS PERIOD    2

1
              HEAD IN LAYER   1 AT END OF TIME STEP   4 IN STRESS PERIOD    2
  ---------------------------------------------------------------------------

            1           2           3           4           5           6           7           8           9          10
 ........................................................................................................................
   1    9.998       8.935       7.860       6.773       5.676       4.567       3.445       2.312       1.165      1.5190E-03
   2    9.998       8.935       7.860       6.774       5.676       4.567       3.445       2.312       1.165      1.5191E-03
   3    9.998       8.935       7.860       6.774       5.676       4.567       3.446       2.312       1.165      1.5191E-03
   4    9.998       8.935       7.860       6.774       5.678       4.571       3.447       2.312       1.166      1.5193E-03
   5    9.998       8.936       7.860       6.775       5.683       4.591       3.453       2.314       1.166      1.5196E-03
   6    9.998       8.936       7.861       6.778       5.700       4.747       3.470       2.316       1.166      1.5200E-03
   7    9.998       8.936       7.860       6.775       5.683       4.591       3.453       2.314       1.166      1.5196E-03
   8    9.998       8.935       7.860       6.774       5.678       4.571       3.447       2.312       1.166      1.5193E-03
   9    9.998       8.935       7.860       6.774       5.676       4.567       3.446       2.312       1.165      1.5191E-03
  10    9.998       8.935       7.860       6.774       5.676       4.567       3.445       2.312       1.165      1.5191E-03
1
              HEAD IN LAYER   2 AT END OF TIME STEP   4 IN STRESS PERIOD    2
  ---------------------------------------------------------------------------

            1           2           3           4           5           6           7           8           9          10
 ........................................................................................................................
   1    9.998       8.934       7.858       6.771       5.674       4.565       3.443       2.310       1.163      2.4986E-03
   2    9.998       8.934       7.858       6.772       5.674       4.565       3.443       2.310       1.163      2.4987E-03
   3    9.998       8.934       7.858       6.772       5.675       4.566       3.444       2.310       1.164      2.4988E-03
   4    9.998       8.934       7.858       6.773       5.677       4.571       3.446       2.311       1.164      2.4993E-03
   5    9.998       8.934       7.859       6.775       5.685       4.600       3.455       2.313       1.164      2.5002E-03
   6    9.998       8.934       7.859       6.778       5.709       4.833       3.478       2.316       1.165      2.5013E-03
   7    9.998       8.934       7.859       6.775       5.685       4.600       3.455       2.313       1.164      2.5002E-03
   8    9.998       8.934       7.858       6.773       5.677       4.571       3.446       2.311       1.164      2.4993E-03
   9    9.998       8.934       7.858       6.772       5.675       4.566       3.444       2.310       1.164      2.4988E-03
  10    9.998       8.934       7.858       6.772       5.674       4.565       3.444       2.310       1.163      2.4987E-03
1
              HEAD IN LAYER   3 AT END OF TIME STEP   4 IN STRESS PERIOD    2
  ---------------------------------------------------------------------------

            1           2           3           4           5           6           7           8           9          10
 ........................................................................................................................
   1    9.998       8.932       7.856       6.770       5.672       4.563       3.442       2.308       1.162      2.5478E-03
   2    9.998       8.932       7.856       6.770       5.672       4.563       3.442       2.308       1.162      2.5479E-03
   3    9.998       8.932       7.857       6.770       5.673       4.565       3.443       2.308       1.162      2.5481E-03
   4    9.998       8.932       7.857       6.771       5.676       4.571       3.446       2.310       1.162      2.5488E-03
   5    9.998       8.932       7.858       6.774       5.687       4.603       3.456       2.312       1.163      2.5501E-03
   6    9.998       8.933       7.858       6.778       5.712       4.759       3.481       2.316       1.163      2.5515E-03
   7    9.998       8.932       7.858       6.774       5.687       4.603       3.456       2.312       1.163      2.5501E-03
   8    9.998       8.932       7.857       6.771       5.676       4.571       3.446       2.310       1.162      2.5488E-03
   9    9.998       8.932       7.857       6.770       5.673       4.565       3.443       2.308       1.162      2.5481E-03
  10    9.998       8.932       7.857       6.770       5.672       4.563       3.442       2.308       1.162      2.5479E-03
1
              HEAD IN LAYER   4 AT END OF TIME STEP   4 IN STRESS PERIOD    2
  ---------------------------------------------------------------------------

            1           2           3           4           5           6           7           8           9          10
 ........................................................................................................................
   1    9.998       8.931       7.855       6.769       5.671       4.562       3.440       2.307       1.161      2.5476E-03
   2    9.998       8.931       7.855       6.769       5.671       4.562       3.441       2.307       1.161      2.5477E-03
   3    9.998       8.931       7.856       6.769       5.672       4.564       3.442       2.307       1.161      2.5480E-03
   4    9.998       8.931       7.856       6.771       5.676       4.571       3.445       2.309       1.161      2.5487E-03
   5    9.998       8.932       7.857       6.774       5.688       4.603       3.457       2.312       1.162      2.5503E-03
   6    9.998       8.932       7.858       6.778       5.712       4.716       3.482       2.316       1.163      2.5520E-03
   7    9.998       8.932       7.857       6.774       5.688       4.603       3.457       2.312       1.162      2.5503E-03
   8    9.998       8.931       7.856       6.771       5.676       4.571       3.445       2.309       1.161      2.5487E-03
   9    9.998       8.931       7.856       6.769       5.672       4.564       3.442       2.307       1.161      2.5480E-03
  10    9.998       8.931       7.855       6.769       5.671       4.562       3.441       2.307       1.161      2.5477E-03
1
              HEAD IN LAYER   5 AT END OF TIME STEP   4 IN STRESS PERIOD    2
  ---------------------------------------------------------------------------

            1           2           3           4           5           6           7           8           9          10
 ........................................................................................................................
   1    9.998       8.931       7.855       6.768       5.670       4.561       3.440       2.306       1.160      2.5465E-03
   2    9.998       8.931       7.855       6.768       5.671       4.562       3.440       2.306       1.160      2.5466E-03
   3    9.998       8.931       7.855       6.769       5.672       4.563       3.441       2.307       1.160      2.5469E-03
   4    9.998       8.931       7.856       6.770       5.676       4.571       3.445       2.308       1.161      2.5477E-03
   5    9.998       8.931       7.856       6.774       5.688       4.603       3.457       2.312       1.161      2.5494E-03
   6    9.998       8.931       7.857       6.778       5.712       4.696       3.481       2.316       1.162      2.5512E-03
   7    9.998       8.931       7.856       6.774       5.688       4.603       3.457       2.312       1.161      2.5494E-03
   8    9.998       8.931       7.856       6.770       5.676       4.571       3.445       2.308       1.161      2.5477E-03
   9    9.998       8.931       7.855       6.769       5.672       4.563       3.441       2.307       1.160      2.5469E-03
  10    9.998       8.931       7.855       6.768       5.671       4.562       3.440       2.306       1.160      2.5466E-03

 HEAD WILL BE SAVED ON UNIT   51 AT END OF TIME STEP    4, STRESS PERIOD    2

 DRAWDOWN WILL BE SAVED ON UNIT   52 AT END OF TIME STEP    4, STRESS PERIOD    2
1
  VOLUMETRIC BUDGET FOR ENTIRE MODEL AT END OF TIME STEP    4, STRESS PERIOD   2
  ------------------------------------------------------------------------------

     CUMULATIVE VOLUMES      L**3       RATES FOR THIS TIME STEP      L**3/T
     ------------------                 ------------------------

           IN:                                      IN:
           ---                                      ---
             STORAGE =           0.0000               STORAGE =           0.0000
       CONSTANT HEAD =           0.0000         CONSTANT HEAD =           0.0000
               WELLS =         400.0000                 WELLS =         100.0000
     HEAD DEP BOUNDS =        5829.4717       HEAD DEP BOUNDS =        1165.8174

            TOTAL IN =        6229.4717              TOTAL IN =        1265.8174

          OUT:                                     OUT:
          ----                                     ----
             STORAGE =         398.5295               STORAGE =          99.3448
       CONSTANT HEAD =           0.0000         CONSTANT HEAD =           0.0000
               WELLS =           0.0000                 WELLS =           0.0000
     HEAD DEP BOUNDS =        5830.8164       HEAD DEP BOUNDS =        1166.4434

           TOTAL OUT =        6229.3457             TOTAL OUT =        1265.7882

            IN - OUT =           0.1260              IN - OUT =       2.9175E-02

 PERCENT DISCREPANCY =           0.00     PERCENT DISCREPANCY =           0.00






         TIME SUMMARY AT END OF TIME STEP    4 IN STRESS PERIOD    2
                    SECONDS     MINUTES      HOURS       DAYS        YEARS
                    -----------------------------------------------------------
   TIME STEP LENGTH  86400.      1440.0      24.000      1.0000     2.73785E-03
 STRESS PERIOD TIME 3.45600E+05  5760.0      96.000      4.0000     1.09514E-02
         TOTAL TIME 4.32000E+05  7200.0      120.00      5.0000     1.36893E-02
1
 
 SOLVING FOR HEAD 

 OUTPUT CONTROL FOR STRESS PERIOD    2   TIME STEP    5
    SAVE HEAD FOR ALL LAYERS
    SAVE DRAWDOWN FOR ALL LAYERS
    SAVE BUDGET
    PRINT HEAD FOR ALL LAYERS
    PRINT BUDGET
 UBDSV1 SAVING "         STORAGE" ON UNIT  53 AT TIME STEP  5, STRESS PERIOD   2
 UBDSV2 SAVING "   CONSTANT HEAD" ON UNIT  53 AT TIME STEP  5, STRESS PERIOD   2
 UBDSV1 SAVING "FLOW RIGHT FACE " ON UNIT  53 AT TIME STEP  5, STRESS PERIOD   2
 UBDSV1 SAVING "FLOW FRONT FACE " ON UNIT  53 AT TIME STEP  5, STRESS PERIOD   2
 UBDSV1 SAVING "FLOW LOWER FACE " ON UNIT  53 AT TIME STEP  5, STRESS PERIOD   2

 SAVING SATURATED THICKNESS AND FLOW TERMS ON UNIT   54 FOR MT3DMS
 BY THE LINK-MT3DMS PACKAGE V7 AT TIME STEP    5, STRESS PERIOD    2

1
              HEAD IN LAYER   1 AT END OF TIME STEP   5 IN STRESS PERIOD    2
  ---------------------------------------------------------------------------

            1           2           3           4           5           6           7           8           9          10
 ........................................................................................................................
   1    9.998       8.935       7.860       6.773       5.676       4.567       3.445       2.312       1.165      1.5190E-03
   2    9.998       8.935       7.860       6.774       5.676       4.567       3.445       2.312       1.165      1.5191E-03
   3    9.998       8.935       7.860       6.774       5.676       4.568       3.446       2.312       1.165      1.5192E-03
   4    9.998       8.936       7.860       6.774       5.679       4.572       3.448       2.313       1.166      1.5194E-03
   5    9.998       8.936       7.861       6.776       5.686       4.598       3.455       2.315       1.166      1.5199E-03
   6    9.998       8.936       7.861       6.779       5.707       4.777       3.477       2.318       1.166      1.5206E-03
   7    9.998       8.936       7.861       6.776       5.686       4.598       3.455       2.315       1.166      1.5199E-03
   8    9.998       8.936       7.860       6.774       5.679       4.572       3.448       2.313       1.166      1.5194E-03
   9    9.998       8.935       7.860       6.774       5.676       4.568       3.446       2.312       1.165      1.5192E-03
  10    9.998       8.935       7.860       6.774       5.676       4.567       3.446       2.312       1.165      1.5191E-03
1
              HEAD IN LAYER   2 AT END OF TIME STEP   5 IN STRESS PERIOD    2
  ---------------------------------------------------------------------------

            1           2           3           4           5           6           7           8           9          10
 ........................................................................................................................
   1    9.998       8.934       7.858       6.772       5.674       4.565       3.443       2.310       1.163      2.4986E-03
   2    9.998       8.934       7.858       6.772       5.674       4.565       3.444       2.310       1.163      2.4987E-03
   3    9.998       8.934       7.858       6.772       5.675       4.566       3.444       2.310       1.164      2.4989E-03
   4    9.998       8.934       7.859       6.773       5.678       4.573       3.448       2.311       1.164      2.4996E-03
   5    9.998       8.934       7.859       6.776       5.688       4.607       3.458       2.314       1.164      2.5009E-03
   6    9.998       8.934       7.860       6.780       5.716       4.857       3.486       2.318       1.165      2.5022E-03
   7    9.998       8.934       7.859       6.776       5.688       4.607       3.458       2.314       1.164      2.5009E-03
   8    9.998       8.934       7.859       6.773       5.678       4.573       3.448       2.311       1.164      2.4996E-03
   9    9.998       8.934       7.858       6.772       5.675       4.566       3.444       2.310       1.164      2.4990E-03
  10    9.998       8.934       7.858       6.772       5.674       4.565       3.444       2.310       1.163      2.4987E-03
1
              HEAD IN LAYER   3 AT END OF TIME STEP   5 IN STRESS PERIOD    2
  ---------------------------------------------------------------------------

            1           2           3           4           5           6           7           8           9          10
 ........................................................................................................................
   1    9.998       8.932       7.856       6.770       5.672       4.563       3.442       2.308       1.162      2.5478E-03
   2    9.998       8.932       7.857       6.770       5.672       4.563       3.442       2.308       1.162      2.5480E-03
   3    9.998       8.932       7.857       6.771       5.674       4.565       3.443       2.309       1.162      2.5483E-03
   4    9.998       8.932       7.857       6.772       5.678       4.573       3.447       2.310       1.162      2.5492E-03
   5    9.998       8.933       7.858       6.775       5.690       4.610       3.460       2.313       1.163      2.5509E-03
   6    9.998       8.933       7.859       6.780       5.719       4.777       3.488       2.318       1.164      2.5527E-03
   7    9.998       8.933       7.858       6.775       5.690       4.610       3.460       2.313       1.163      2.5509E-03
   8    9.998       8.932       7.857       6.772       5.678       4.573       3.447       2.310       1.162      2.5492E-03
   9    9.998       8.932       7.857       6.771       5.674       4.565       3.443       2.309       1.162      2.5483E-03
  10    9.998       8.932       7.857       6.770       5.673       4.563       3.442       2.308       1.162      2.5480E-03
1
              HEAD IN LAYER   4 AT END OF TIME STEP   5 IN STRESS PERIOD    2
  ---------------------------------------------------------------------------

            1           2           3           4           5           6           7           8           9          10
 ........................................................................................................................
   1    9.998       8.931       7.855       6.769       5.671       4.562       3.440       2.307       1.161      2.5476E-03
   2    9.998       8.931       7.856       6.769       5.671       4.562       3.441       2.307       1.161      2.5477E-03
   3    9.998       8.931       7.856       6.770       5.673       4.564       3.442       2.308       1.161      2.5482E-03
   4    9.998       8.932       7.856       6.771       5.677       4.573       3.447       2.309       1.161      2.5492E-03
   5    9.998       8.932       7.857       6.775       5.691       4.610       3.461       2.313       1.162      2.5512E-03
   6    9.998       8.932       7.858       6.781       5.719       4.731       3.488       2.318       1.163      2.5533E-03
   7    9.998       8.932       7.857       6.775       5.691       4.610       3.461       2.313       1.162      2.5512E-03
   8    9.998       8.932       7.856       6.771       5.677       4.573       3.447       2.309       1.161      2.5492E-03
   9    9.998       8.931       7.856       6.770       5.673       4.564       3.442       2.308       1.161      2.5482E-03
  10    9.998       8.931       7.856       6.769       5.672       4.562       3.441       2.307       1.161      2.5478E-03
1
              HEAD IN LAYER   5 AT END OF TIME STEP   5 IN STRESS PERIOD    2
  ---------------------------------------------------------------------------

            1           2           3           4           5           6           7           8           9          10
 ........................................................................................................................
   1    9.998       8.931       7.855       6.768       5.671       4.561       3.440       2.306       1.160      2.5465E-03
   2    9.998       8.931       7.855       6.768       5.671       4.562       3.440       2.306       1.160      2.5466E-03
   3    9.998       8.931       7.855       6.769       5.672       4.564       3.442       2.307       1.160      2.5471E-03
   4    9.998       8.931       7.856       6.771       5.677       4.573       3.447       2.309       1.161      2.5482E-03
   5    9.998       8.931       7.857       6.775       5.692       4.609       3.461       2.313       1.162      2.5504E-03
   6    9.998       8.932       7.858       6.781       5.719       4.711       3.488       2.318       1.163      2.5526E-03
   7    9.998       8.931       7.857       6.775       5.692       4.609       3.461       2.313       1.162      2.5504E-03
   8    9.998       8.931       7.856       6.771       5.677       4.573       3.447       2.309       1.161      2.5482E-03
   9    9.998       8.931       7.855       6.769       5.672       4.564       3.442       2.307       1.160      2.5471E-03
  10    9.998       8.931       7.855       6.769       5.671       4.562       3.440       2.306       1.160      2.5467E-03

 HEAD WILL BE SAVED ON UNIT   51 AT END OF TIME STEP    5, STRESS PERIOD    2

 DRAWDOWN WILL BE SAVED ON UNIT   52 AT END OF TIME STEP    5, STRESS PERIOD    2
1
  VOLUMETRIC BUDGET FOR ENTIRE MODEL AT END OF TIME STEP    5, STRESS PERIOD   2
  ------------------------------------------------------------------------------

     CUMULATIVE VOLUMES      L**3       RATES FOR THIS TIME STEP      L**3/T
     ------------------                 ------------------------

           IN:                                      IN:
           ---                                      ---
             STORAGE =           0.0000               STORAGE =           0.0000
       CONSTANT HEAD =           0.0000         CONSTANT HEAD =           0.0000
               WELLS =         500.0000                 WELLS =         100.0000
     HEAD DEP BOUNDS =        6995.2271       HEAD DEP BOUNDS =        1165.7554

            TOTAL IN =        7495.2271              TOTAL IN =        1265.7554

          OUT:                                     OUT:
          ----                                     ----
             STORAGE =         497.6270               STORAGE =          99.0974
       CONSTANT HEAD =           0.0000         CONSTANT HEAD =           0.0000
               WELLS =           0.0000                 WELLS =           0.0000
     HEAD DEP BOUNDS =        6997.4443       HEAD DEP BOUNDS =        1166.6278

           TOTAL OUT =        7495.0713             TOTAL OUT =        1265.7252

            IN - OUT =           0.1558              IN - OUT =       3.0151E-02

 PERCENT DISCREPANCY =           0.00     PERCENT DISCREPANCY =           0.00






         TIME SUMMARY AT END OF TIME STEP    5 IN STRESS PERIOD    2
                    SECONDS     MINUTES      HOURS       DAYS        YEARS
                    -----------------------------------------------------------
   TIME STEP LENGTH  86400.      1440.0      24.000      1.0000     2.73785E-03
 STRESS PERIOD TIME 4.32000E+05  7200.0      120.00      5.0000     1.36893E-02
         TOTAL TIME 5.18400E+05  8640.0      144.00      6.0000     1.64271E-02
1
 
 SOLVING FOR HEAD 

 OUTPUT CONTROL FOR STRESS PERIOD    2   TIME STEP    6
    SAVE HEAD FOR ALL LAYERS
    SAVE DRAWDOWN FOR ALL LAYERS
    SAVE BUDGET
    PRINT HEAD FOR ALL LAYERS
    PRINT BUDGET
 UBDSV1 SAVING "         STORAGE" ON UNIT  53 AT TIME STEP  6, STRESS PERIOD   2
 UBDSV2 SAVING "   CONSTANT HEAD" ON UNIT  53 AT TIME STEP  6, STRESS PERIOD   2
 UBDSV1 SAVING "FLOW RIGHT FACE " ON UNIT  53 AT TIME STEP  6, STRESS PERIOD   2
 UBDSV1 SAVING "FLOW FRONT FACE " ON UNIT  53 AT TIME STEP  6, STRESS PERIOD   2
 UBDSV1 SAVING "FLOW LOWER FACE " ON UNIT  53 AT TIME STEP  6, STRESS PERIOD   2

 SAVING SATURATED THICKNESS AND FLOW TERMS ON UNIT   54 FOR MT3DMS
 BY THE LINK-MT3DMS PACKAGE V7 AT TIME STEP    6, STRESS PERIOD    2

1
              HEAD IN LAYER   1 AT END OF TIME STEP   6 IN STRESS PERIOD    2
  ---------------------------------------------------------------------------

            1           2           3           4           5           6           7           8           9          10
 ........................................................................................................................
   1    9.998       8.935       7.860       6.774       5.676       4.567       3.445       2.312       1.165      1.5191E-03
   2    9.998       8.935       7.860       6.774       5.676       4.567       3.446       2.312       1.165      1.5191E-03
   3    9.998       8.935       7.860       6.774       5.677       4.568       3.446       2.312       1.165      1.5192E-03
   4    9.998       8.936       7.860       6.775       5.680       4.574       3.449       2.313       1.166      1.5196E-03
   5    9.998       8.936       7.861       6.777       5.689       4.606       3.459       2.316       1.166      1.5204E-03
   6    9.998       8.936       7.862       6.781       5.714       4.803       3.485       2.319       1.167      1.5211E-03
   7    9.998       8.936       7.861       6.777       5.689       4.606       3.459       2.316       1.166      1.5204E-03
   8    9.998       8.936       7.860       6.775       5.680       4.574       3.449       2.313       1.166      1.5196E-03
   9    9.998       8.935       7.860       6.774       5.677       4.568       3.446       2.312       1.166      1.5192E-03
  10    9.998       8.935       7.860       6.774       5.676       4.567       3.446       2.312       1.165      1.5191E-03
1
              HEAD IN LAYER   2 AT END OF TIME STEP   6 IN STRESS PERIOD    2
  ---------------------------------------------------------------------------

            1           2           3           4           5           6           7           8           9          10
 ........................................................................................................................
   1    9.998       8.934       7.858       6.772       5.674       4.565       3.443       2.310       1.163      2.4986E-03
   2    9.998       8.934       7.858       6.772       5.674       4.565       3.444       2.310       1.163      2.4988E-03
   3    9.998       8.934       7.858       6.772       5.675       4.567       3.445       2.310       1.164      2.4991E-03
   4    9.998       8.934       7.859       6.774       5.679       4.575       3.449       2.312       1.164      2.5000E-03
   5    9.998       8.934       7.860       6.777       5.692       4.614       3.461       2.315       1.165      2.5016E-03
   6    9.998       8.934       7.860       6.782       5.723       4.877       3.493       2.320       1.166      2.5033E-03
   7    9.998       8.934       7.860       6.777       5.692       4.614       3.461       2.315       1.165      2.5016E-03
   8    9.998       8.934       7.859       6.774       5.679       4.575       3.449       2.312       1.164      2.5000E-03
   9    9.998       8.934       7.858       6.772       5.675       4.567       3.445       2.310       1.164      2.4991E-03
  10    9.998       8.934       7.858       6.772       5.674       4.565       3.444       2.310       1.163      2.4988E-03
1
              HEAD IN LAYER   3 AT END OF TIME STEP   6 IN STRESS PERIOD    2
  ---------------------------------------------------------------------------

            1           2           3           4           5           6           7           8           9          10
 ........................................................................................................................
   1    9.998       8.932       7.856       6.770       5.672       4.563       3.442       2.308       1.162      2.5479E-03
   2    9.998       8.932       7.857       6.770       5.673       4.564       3.442       2.308       1.162      2.5480E-03
   3    9.998       8.932       7.857       6.771       5.674       4.566       3.444       2.309       1.162      2.5485E-03
   4    9.998       8.932       7.857       6.773       5.679       4.575       3.448       2.311       1.162      2.5496E-03
   5    9.998       8.933       7.858       6.777       5.694       4.616       3.463       2.315       1.163      2.5518E-03
   6    9.998       8.933       7.860       6.783       5.726       4.793       3.495       2.320       1.165      2.5540E-03
   7    9.998       8.933       7.858       6.777       5.694       4.616       3.463       2.315       1.163      2.5518E-03
   8    9.998       8.932       7.857       6.773       5.679       4.575       3.448       2.311       1.163      2.5496E-03
   9    9.998       8.932       7.857       6.771       5.674       4.566       3.444       2.309       1.162      2.5485E-03
  10    9.998       8.932       7.857       6.770       5.673       4.564       3.442       2.308       1.162      2.5481E-03
1
              HEAD IN LAYER   4 AT END OF TIME STEP   6 IN STRESS PERIOD    2
  ---------------------------------------------------------------------------

            1           2           3           4           5           6           7           8           9          10
 ........................................................................................................................
   1    9.998       8.931       7.855       6.769       5.671       4.562       3.441       2.307       1.161      2.5476E-03
   2    9.998       8.931       7.856       6.769       5.672       4.562       3.441       2.307       1.161      2.5478E-03
   3    9.998       8.931       7.856       6.770       5.673       4.565       3.443       2.308       1.161      2.5484E-03
   4    9.998       8.932       7.857       6.772       5.679       4.576       3.448       2.310       1.162      2.5497E-03
   5    9.998       8.932       7.858       6.777       5.695       4.616       3.464       2.315       1.163      2.5522E-03
   6    9.998       8.932       7.859       6.783       5.726       4.745       3.495       2.321       1.164      2.5547E-03
   7    9.998       8.932       7.858       6.777       5.695       4.616       3.464       2.315       1.163      2.5522E-03
   8    9.998       8.932       7.857       6.772       5.679       4.576       3.448       2.310       1.162      2.5497E-03
   9    9.998       8.931       7.856       6.770       5.673       4.565       3.443       2.308       1.161      2.5484E-03
  10    9.998       8.931       7.856       6.769       5.672       4.563       3.441       2.307       1.161      2.5479E-03
1
              HEAD IN LAYER   5 AT END OF TIME STEP   6 IN STRESS PERIOD    2
  ---------------------------------------------------------------------------

            1           2           3           4           5           6           7           8           9          10
 ........................................................................................................................
   1    9.998       8.931       7.855       6.768       5.671       4.561       3.440       2.306       1.160      2.5465E-03
   2    9.998       8.931       7.855       6.769       5.671       4.562       3.440       2.306       1.160      2.5467E-03
   3    9.998       8.931       7.855       6.769       5.673       4.565       3.442       2.307       1.160      2.5473E-03
   4    9.998       8.931       7.856       6.772       5.679       4.576       3.448       2.310       1.161      2.5488E-03
   5    9.998       8.932       7.857       6.777       5.696       4.616       3.465       2.314       1.162      2.5515E-03
   6    9.998       8.932       7.859       6.783       5.725       4.723       3.494       2.321       1.163      2.5541E-03
   7    9.998       8.932       7.857       6.777       5.696       4.616       3.465       2.314       1.162      2.5515E-03
   8    9.998       8.931       7.856       6.772       5.679       4.576       3.448       2.310       1.161      2.5488E-03
   9    9.998       8.931       7.855       6.769       5.673       4.565       3.442       2.307       1.160      2.5474E-03
  10    9.998       8.931       7.855       6.769       5.671       4.562       3.441       2.307       1.160      2.5468E-03

 HEAD WILL BE SAVED ON UNIT   51 AT END OF TIME STEP    6, STRESS PERIOD    2

 DRAWDOWN WILL BE SAVED ON UNIT   52 AT END OF TIME STEP    6, STRESS PERIOD    2
1
  VOLUMETRIC BUDGET FOR ENTIRE MODEL AT END OF TIME STEP    6, STRESS PERIOD   2
  ------------------------------------------------------------------------------

     CUMULATIVE VOLUMES      L**3       RATES FOR THIS TIME STEP      L**3/T
     ------------------                 ------------------------

           IN:                                      IN:
           ---                                      ---
             STORAGE =           0.0000               STORAGE =           0.0000
       CONSTANT HEAD =           0.0000         CONSTANT HEAD =           0.0000
               WELLS =         600.0000                 WELLS =         100.0000
     HEAD DEP BOUNDS =        8160.9092       HEAD DEP BOUNDS =        1165.6823

            TOTAL IN =        8760.9092              TOTAL IN =        1265.6823

          OUT:                                     OUT:
          ----                                     ----
             STORAGE =         596.4401               STORAGE =          98.8132
       CONSTANT HEAD =           0.0000         CONSTANT HEAD =           0.0000
               WELLS =           0.0000                 WELLS =           0.0000
     HEAD DEP BOUNDS =        8164.2803       HEAD DEP BOUNDS =        1166.8362

           TOTAL OUT =        8760.7207             TOTAL OUT =        1265.6494

            IN - OUT =           0.1885              IN - OUT =       3.2837E-02

 PERCENT DISCREPANCY =           0.00     PERCENT DISCREPANCY =           0.00






         TIME SUMMARY AT END OF TIME STEP    6 IN STRESS PERIOD    2
                    SECONDS     MINUTES      HOURS       DAYS        YEARS
                    -----------------------------------------------------------
   TIME STEP LENGTH  86400.      1440.0      24.000      1.0000     2.73785E-03
 STRESS PERIOD TIME 5.18400E+05  8640.0      144.00      6.0000     1.64271E-02
         TOTAL TIME 6.04800E+05  10080.      168.00      7.0000     1.91650E-02
1
 
 SOLVING FOR HEAD 

 OUTPUT CONTROL FOR STRESS PERIOD    2   TIME STEP    7
    SAVE HEAD FOR ALL LAYERS
    SAVE DRAWDOWN FOR ALL LAYERS
    SAVE BUDGET
    PRINT HEAD FOR ALL LAYERS
    PRINT BUDGET
 UBDSV1 SAVING "         STORAGE" ON UNIT  53 AT TIME STEP  7, STRESS PERIOD   2
 UBDSV2 SAVING "   CONSTANT HEAD" ON UNIT  53 AT TIME STEP  7, STRESS PERIOD   2
 UBDSV1 SAVING "FLOW RIGHT FACE " ON UNIT  53 AT TIME STEP  7, STRESS PERIOD   2
 UBDSV1 SAVING "FLOW FRONT FACE " ON UNIT  53 AT TIME STEP  7, STRESS PERIOD   2
 UBDSV1 SAVING "FLOW LOWER FACE " ON UNIT  53 AT TIME STEP  7, STRESS PERIOD   2

 SAVING SATURATED THICKNESS AND FLOW TERMS ON UNIT   54 FOR MT3DMS
 BY THE LINK-MT3DMS PACKAGE V7 AT TIME STEP    7, STRESS PERIOD    2

1
              HEAD IN LAYER   1 AT END OF TIME STEP   7 IN STRESS PERIOD    2
  ---------------------------------------------------------------------------

            1           2           3           4           5           6           7           8           9          10
 ........................................................................................................................
   1    9.998       8.935       7.860       6.774       5.676       4.567       3.445       2.312       1.165      1.5191E-03
   2    9.998       8.935       7.860       6.774       5.676       4.567       3.446       2.312       1.165      1.5191E-03
   3    9.998       8.936       7.860       6.774       5.677       4.569       3.447       2.312       1.166      1.5193E-03
   4    9.998       8.936       7.861       6.775       5.681       4.576       3.450       2.314       1.166      1.5198E-03
   5    9.998       8.936       7.861       6.778       5.692       4.613       3.462       2.317       1.167      1.5208E-03
   6    9.998       8.936       7.862       6.783       5.721       4.825       3.492       2.321       1.167      1.5218E-03
   7    9.998       8.936       7.861       6.778       5.692       4.613       3.462       2.317       1.167      1.5208E-03
   8    9.998       8.936       7.861       6.775       5.681       4.576       3.450       2.314       1.166      1.5198E-03
   9    9.998       8.936       7.860       6.774       5.677       4.569       3.447       2.312       1.166      1.5193E-03
  10    9.998       8.935       7.860       6.774       5.676       4.567       3.446       2.312       1.165      1.5192E-03
1
              HEAD IN LAYER   2 AT END OF TIME STEP   7 IN STRESS PERIOD    2
  ---------------------------------------------------------------------------

            1           2           3           4           5           6           7           8           9          10
 ........................................................................................................................
   1    9.998       8.934       7.858       6.772       5.674       4.565       3.443       2.310       1.163      2.4987E-03
   2    9.998       8.934       7.858       6.772       5.674       4.565       3.444       2.310       1.164      2.4988E-03
   3    9.998       8.934       7.858       6.772       5.676       4.567       3.445       2.311       1.164      2.4993E-03
   4    9.998       8.934       7.859       6.774       5.681       4.577       3.450       2.312       1.164      2.5004E-03
   5    9.998       8.934       7.860       6.778       5.695       4.621       3.465       2.316       1.165      2.5025E-03
   6    9.998       8.934       7.861       6.784       5.730       4.895       3.500       2.322       1.166      2.5045E-03
   7    9.998       8.934       7.860       6.778       5.695       4.621       3.465       2.316       1.165      2.5025E-03
   8    9.998       8.934       7.859       6.774       5.681       4.577       3.450       2.312       1.164      2.5004E-03
   9    9.998       8.934       7.858       6.772       5.676       4.568       3.445       2.311       1.164      2.4993E-03
  10    9.998       8.934       7.858       6.772       5.674       4.565       3.444       2.310       1.164      2.4989E-03
1
              HEAD IN LAYER   3 AT END OF TIME STEP   7 IN STRESS PERIOD    2
  ---------------------------------------------------------------------------

            1           2           3           4           5           6           7           8           9          10
 ........................................................................................................................
   1    9.998       8.932       7.856       6.770       5.672       4.563       3.442       2.308       1.162      2.5479E-03
   2    9.998       8.932       7.857       6.770       5.673       4.564       3.442       2.308       1.162      2.5481E-03
   3    9.998       8.932       7.857       6.771       5.675       4.567       3.444       2.309       1.162      2.5487E-03
   4    9.998       8.933       7.858       6.773       5.681       4.578       3.450       2.311       1.163      2.5502E-03
   5    9.998       8.933       7.859       6.778       5.697       4.623       3.467       2.316       1.164      2.5528E-03
   6    9.998       8.933       7.860       6.785       5.732       4.807       3.502       2.323       1.165      2.5554E-03
   7    9.998       8.933       7.859       6.778       5.697       4.623       3.467       2.316       1.164      2.5528E-03
   8    9.998       8.933       7.858       6.773       5.681       4.578       3.450       2.311       1.163      2.5502E-03
   9    9.998       8.932       7.857       6.771       5.675       4.567       3.444       2.309       1.162      2.5487E-03
  10    9.998       8.932       7.857       6.770       5.673       4.564       3.442       2.308       1.162      2.5482E-03
1
              HEAD IN LAYER   4 AT END OF TIME STEP   7 IN STRESS PERIOD    2
  ---------------------------------------------------------------------------

            1           2           3           4           5           6           7           8           9          10
 ........................................................................................................................
   1    9.998       8.931       7.855       6.769       5.671       4.562       3.441       2.307       1.161      2.5477E-03
   2    9.998       8.931       7.856       6.769       5.672       4.563       3.441       2.307       1.161      2.5479E-03
   3    9.998       8.931       7.856       6.770       5.674       4.566       3.443       2.308       1.161      2.5486E-03
   4    9.998       8.932       7.857       6.773       5.680       4.578       3.450       2.311       1.162      2.5503E-03
   5    9.998       8.932       7.858       6.778       5.699       4.622       3.468       2.316       1.163      2.5533E-03
   6    9.998       8.932       7.860       6.785       5.732       4.757       3.501       2.323       1.165      2.5562E-03
   7    9.998       8.932       7.858       6.778       5.699       4.622       3.468       2.316       1.163      2.5533E-03
   8    9.998       8.932       7.857       6.773       5.680       4.578       3.450       2.311       1.162      2.5503E-03
   9    9.998       8.931       7.856       6.770       5.674       4.566       3.443       2.308       1.161      2.5487E-03
  10    9.998       8.931       7.856       6.769       5.672       4.563       3.441       2.307       1.161      2.5480E-03
1
              HEAD IN LAYER   5 AT END OF TIME STEP   7 IN STRESS PERIOD    2
  ---------------------------------------------------------------------------

            1           2           3           4           5           6           7           8           9          10
 ........................................................................................................................
   1    9.998       8.931       7.855       6.768       5.671       4.561       3.440       2.306       1.160      2.5466E-03
   2    9.998       8.931       7.855       6.769       5.671       4.562       3.441       2.307       1.160      2.5468E-03
   3    9.998       8.931       7.855       6.770       5.674       4.566       3.443       2.308       1.161      2.5476E-03
   4    9.998       8.931       7.856       6.772       5.680       4.578       3.450       2.310       1.161      2.5494E-03
   5    9.998       8.932       7.858       6.778       5.699       4.622       3.468       2.316       1.163      2.5526E-03
   6    9.998       8.932       7.859       6.785       5.731       4.734       3.500       2.323       1.164      2.5556E-03
   7    9.998       8.932       7.858       6.778       5.699       4.622       3.468       2.316       1.163      2.5526E-03
   8    9.998       8.931       7.856       6.773       5.680       4.578       3.450       2.310       1.161      2.5494E-03
   9    9.998       8.931       7.856       6.770       5.674       4.566       3.443       2.308       1.161      2.5476E-03
  10    9.998       8.931       7.855       6.769       5.672       4.563       3.441       2.307       1.160      2.5470E-03

 HEAD WILL BE SAVED ON UNIT   51 AT END OF TIME STEP    7, STRESS PERIOD    2

 DRAWDOWN WILL BE SAVED ON UNIT   52 AT END OF TIME STEP    7, STRESS PERIOD    2
1
  VOLUMETRIC BUDGET FOR ENTIRE MODEL AT END OF TIME STEP    7, STRESS PERIOD   2
  ------------------------------------------------------------------------------

     CUMULATIVE VOLUMES      L**3       RATES FOR THIS TIME STEP      L**3/T
     ------------------                 ------------------------

           IN:                                      IN:
           ---                                      ---
             STORAGE =           0.0000               STORAGE =           0.0000
       CONSTANT HEAD =           0.0000         CONSTANT HEAD =           0.0000
               WELLS =         700.0000                 WELLS =         100.0000
     HEAD DEP BOUNDS =        9326.5068       HEAD DEP BOUNDS =        1165.5979

            TOTAL IN =       10026.5068              TOTAL IN =        1265.5979

          OUT:                                     OUT:
          ----                                     ----
             STORAGE =         694.9398               STORAGE =          98.4997
       CONSTANT HEAD =           0.0000         CONSTANT HEAD =           0.0000
               WELLS =           0.0000                 WELLS =           0.0000
     HEAD DEP BOUNDS =        9331.3467       HEAD DEP BOUNDS =        1167.0665

           TOTAL OUT =       10026.2861             TOTAL OUT =        1265.5662

            IN - OUT =           0.2207              IN - OUT =       3.1738E-02

 PERCENT DISCREPANCY =           0.00     PERCENT DISCREPANCY =           0.00






         TIME SUMMARY AT END OF TIME STEP    7 IN STRESS PERIOD    2
                    SECONDS     MINUTES      HOURS       DAYS        YEARS
                    -----------------------------------------------------------
   TIME STEP LENGTH  86400.      1440.0      24.000      1.0000     2.73785E-03
 STRESS PERIOD TIME 6.04800E+05  10080.      168.00      7.0000     1.91650E-02
         TOTAL TIME 6.91200E+05  11520.      192.00      8.0000     2.19028E-02
1
 
 SOLVING FOR HEAD 

 OUTPUT CONTROL FOR STRESS PERIOD    2   TIME STEP    8
    SAVE HEAD FOR ALL LAYERS
    SAVE DRAWDOWN FOR ALL LAYERS
    SAVE BUDGET
    PRINT HEAD FOR ALL LAYERS
    PRINT BUDGET
 UBDSV1 SAVING "         STORAGE" ON UNIT  53 AT TIME STEP  8, STRESS PERIOD   2
 UBDSV2 SAVING "   CONSTANT HEAD" ON UNIT  53 AT TIME STEP  8, STRESS PERIOD   2
 UBDSV1 SAVING "FLOW RIGHT FACE " ON UNIT  53 AT TIME STEP  8, STRESS PERIOD   2
 UBDSV1 SAVING "FLOW FRONT FACE " ON UNIT  53 AT TIME STEP  8, STRESS PERIOD   2
 UBDSV1 SAVING "FLOW LOWER FACE " ON UNIT  53 AT TIME STEP  8, STRESS PERIOD   2

 SAVING SATURATED THICKNESS AND FLOW TERMS ON UNIT   54 FOR MT3DMS
 BY THE LINK-MT3DMS PACKAGE V7 AT TIME STEP    8, STRESS PERIOD    2

1
              HEAD IN LAYER   1 AT END OF TIME STEP   8 IN STRESS PERIOD    2
  ---------------------------------------------------------------------------

            1           2           3           4           5           6           7           8           9          10
 ........................................................................................................................
   1    9.998       8.935       7.860       6.774       5.676       4.567       3.445       2.312       1.165      1.5191E-03
   2    9.998       8.935       7.860       6.774       5.676       4.567       3.446       2.312       1.165      1.5192E-03
   3    9.998       8.936       7.860       6.774       5.678       4.569       3.447       2.313       1.166      1.5194E-03
   4    9.998       8.936       7.861       6.776       5.682       4.578       3.451       2.314       1.166      1.5201E-03
   5    9.998       8.936       7.862       6.780       5.695       4.620       3.465       2.318       1.167      1.5213E-03
   6    9.998       8.936       7.863       6.785       5.728       4.845       3.499       2.323       1.168      1.5225E-03
   7    9.998       8.936       7.862       6.780       5.695       4.620       3.465       2.318       1.167      1.5213E-03
   8    9.998       8.936       7.861       6.776       5.682       4.578       3.451       2.314       1.166      1.5201E-03
   9    9.998       8.936       7.860       6.774       5.678       4.569       3.447       2.313       1.166      1.5194E-03
  10    9.998       8.935       7.860       6.774       5.676       4.567       3.446       2.312       1.165      1.5192E-03
1
              HEAD IN LAYER   2 AT END OF TIME STEP   8 IN STRESS PERIOD    2
  ---------------------------------------------------------------------------

            1           2           3           4           5           6           7           8           9          10
 ........................................................................................................................
   1    9.998       8.934       7.858       6.772       5.674       4.565       3.444       2.310       1.163      2.4987E-03
   2    9.998       8.934       7.858       6.772       5.674       4.565       3.444       2.310       1.164      2.4989E-03
   3    9.998       8.934       7.858       6.773       5.676       4.568       3.446       2.311       1.164      2.4995E-03
   4    9.998       8.934       7.859       6.775       5.682       4.579       3.451       2.313       1.164      2.5009E-03
   5    9.998       8.934       7.861       6.780       5.699       4.627       3.468       2.318       1.166      2.5034E-03
   6    9.998       8.934       7.862       6.786       5.736       4.910       3.506       2.324       1.167      2.5059E-03
   7    9.998       8.934       7.861       6.780       5.699       4.627       3.468       2.318       1.166      2.5034E-03
   8    9.998       8.934       7.859       6.775       5.682       4.579       3.451       2.313       1.164      2.5009E-03
   9    9.998       8.934       7.859       6.773       5.676       4.568       3.446       2.311       1.164      2.4995E-03
  10    9.998       8.934       7.858       6.772       5.675       4.566       3.444       2.310       1.164      2.4990E-03
1
              HEAD IN LAYER   3 AT END OF TIME STEP   8 IN STRESS PERIOD    2
  ---------------------------------------------------------------------------

            1           2           3           4           5           6           7           8           9          10
 ........................................................................................................................
   1    9.998       8.932       7.857       6.770       5.672       4.563       3.442       2.308       1.162      2.5480E-03
   2    9.998       8.932       7.857       6.770       5.673       4.564       3.442       2.308       1.162      2.5482E-03
   3    9.998       8.932       7.857       6.771       5.675       4.567       3.445       2.309       1.162      2.5490E-03
   4    9.998       8.933       7.858       6.774       5.682       4.580       3.451       2.312       1.163      2.5507E-03
   5    9.998       8.933       7.860       6.780       5.701       4.629       3.470       2.318       1.164      2.5539E-03
   6    9.998       8.933       7.861       6.787       5.738       4.820       3.508       2.325       1.166      2.5569E-03
   7    9.998       8.933       7.860       6.780       5.701       4.629       3.470       2.318       1.164      2.5539E-03
   8    9.998       8.933       7.858       6.774       5.682       4.580       3.451       2.312       1.163      2.5507E-03
   9    9.998       8.932       7.857       6.771       5.675       4.567       3.445       2.309       1.162      2.5490E-03
  10    9.998       8.932       7.857       6.771       5.673       4.564       3.443       2.309       1.162      2.5483E-03
1
              HEAD IN LAYER   4 AT END OF TIME STEP   8 IN STRESS PERIOD    2
  ---------------------------------------------------------------------------

            1           2           3           4           5           6           7           8           9          10
 ........................................................................................................................
   1    9.998       8.931       7.856       6.769       5.671       4.562       3.441       2.307       1.161      2.5477E-03
   2    9.998       8.931       7.856       6.769       5.672       4.563       3.441       2.307       1.161      2.5480E-03
   3    9.998       8.932       7.856       6.771       5.674       4.567       3.444       2.308       1.161      2.5489E-03
   4    9.998       8.932       7.857       6.774       5.682       4.580       3.451       2.311       1.162      2.5509E-03
   5    9.998       8.932       7.859       6.780       5.702       4.628       3.472       2.318       1.164      2.5545E-03
   6    9.998       8.933       7.861       6.787       5.738       4.768       3.507       2.325       1.165      2.5578E-03
   7    9.998       8.932       7.859       6.780       5.702       4.628       3.472       2.318       1.164      2.5545E-03
   8    9.998       8.932       7.857       6.774       5.682       4.580       3.451       2.311       1.162      2.5509E-03
   9    9.998       8.932       7.856       6.771       5.675       4.567       3.444       2.308       1.161      2.5489E-03
  10    9.998       8.931       7.856       6.770       5.672       4.563       3.442       2.307       1.161      2.5482E-03
1
              HEAD IN LAYER   5 AT END OF TIME STEP   8 IN STRESS PERIOD    2
  ---------------------------------------------------------------------------

            1           2           3           4           5           6           7           8           9          10
 ........................................................................................................................
   1    9.998       8.931       7.855       6.768       5.671       4.562       3.440       2.306       1.160      2.5466E-03
   2    9.998       8.931       7.855       6.769       5.672       4.563       3.441       2.307       1.160      2.5470E-03
   3    9.998       8.931       7.856       6.770       5.674       4.566       3.443       2.308       1.161      2.5479E-03
   4    9.998       8.931       7.857       6.773       5.682       4.580       3.451       2.311       1.162      2.5500E-03
   5    9.998       8.932       7.859       6.780       5.703       4.628       3.472       2.318       1.163      2.5538E-03
   6    9.998       8.932       7.860       6.788       5.737       4.744       3.506       2.325       1.165      2.5573E-03
   7    9.998       8.932       7.859       6.780       5.703       4.628       3.472       2.318       1.163      2.5538E-03
   8    9.998       8.931       7.857       6.773       5.682       4.580       3.451       2.311       1.162      2.5500E-03
   9    9.998       8.931       7.856       6.770       5.674       4.566       3.444       2.308       1.161      2.5479E-03
  10    9.998       8.931       7.855       6.769       5.672       4.563       3.441       2.307       1.160      2.5471E-03

 HEAD WILL BE SAVED ON UNIT   51 AT END OF TIME STEP    8, STRESS PERIOD    2

 DRAWDOWN WILL BE SAVED ON UNIT   52 AT END OF TIME STEP    8, STRESS PERIOD    2
1
  VOLUMETRIC BUDGET FOR ENTIRE MODEL AT END OF TIME STEP    8, STRESS PERIOD   2
  ------------------------------------------------------------------------------

     CUMULATIVE VOLUMES      L**3       RATES FOR THIS TIME STEP      L**3/T
     ------------------                 ------------------------

           IN:                                      IN:
           ---                                      ---
             STORAGE =           0.0000               STORAGE =           0.0000
       CONSTANT HEAD =           0.0000         CONSTANT HEAD =           0.0000
               WELLS =         800.0000                 WELLS =         100.0000
     HEAD DEP BOUNDS =       10492.0088       HEAD DEP BOUNDS =        1165.5018

            TOTAL IN =       11292.0088              TOTAL IN =        1265.5018

          OUT:                                     OUT:
          ----                                     ----
             STORAGE =         793.0861               STORAGE =          98.1463
       CONSTANT HEAD =           0.0000         CONSTANT HEAD =           0.0000
               WELLS =           0.0000                 WELLS =           0.0000
     HEAD DEP BOUNDS =       10498.6689       HEAD DEP BOUNDS =        1167.3223

           TOTAL OUT =       11291.7549             TOTAL OUT =        1265.4685

            IN - OUT =           0.2539              IN - OUT =       3.3325E-02

 PERCENT DISCREPANCY =           0.00     PERCENT DISCREPANCY =           0.00






         TIME SUMMARY AT END OF TIME STEP    8 IN STRESS PERIOD    2
                    SECONDS     MINUTES      HOURS       DAYS        YEARS
                    -----------------------------------------------------------
   TIME STEP LENGTH  86400.      1440.0      24.000      1.0000     2.73785E-03
 STRESS PERIOD TIME 6.91200E+05  11520.      192.00      8.0000     2.19028E-02
         TOTAL TIME 7.77600E+05  12960.      216.00      9.0000     2.46407E-02
1
 
 SOLVING FOR HEAD 

 OUTPUT CONTROL FOR STRESS PERIOD    2   TIME STEP    9
    SAVE HEAD FOR ALL LAYERS
    SAVE DRAWDOWN FOR ALL LAYERS
    SAVE BUDGET
    PRINT HEAD FOR ALL LAYERS
    PRINT BUDGET
 UBDSV1 SAVING "         STORAGE" ON UNIT  53 AT TIME STEP  9, STRESS PERIOD   2
 UBDSV2 SAVING "   CONSTANT HEAD" ON UNIT  53 AT TIME STEP  9, STRESS PERIOD   2
 UBDSV1 SAVING "FLOW RIGHT FACE " ON UNIT  53 AT TIME STEP  9, STRESS PERIOD   2
 UBDSV1 SAVING "FLOW FRONT FACE " ON UNIT  53 AT TIME STEP  9, STRESS PERIOD   2
 UBDSV1 SAVING "FLOW LOWER FACE " ON UNIT  53 AT TIME STEP  9, STRESS PERIOD   2

 SAVING SATURATED THICKNESS AND FLOW TERMS ON UNIT   54 FOR MT3DMS
 BY THE LINK-MT3DMS PACKAGE V7 AT TIME STEP    9, STRESS PERIOD    2

1
              HEAD IN LAYER   1 AT END OF TIME STEP   9 IN STRESS PERIOD    2
  ---------------------------------------------------------------------------

            1           2           3           4           5           6           7           8           9          10
 ........................................................................................................................
   1    9.998       8.935       7.860       6.774       5.676       4.567       3.446       2.312       1.165      1.5191E-03
   2    9.998       8.935       7.860       6.774       5.676       4.567       3.446       2.312       1.165      1.5192E-03
   3    9.998       8.936       7.860       6.775       5.678       4.570       3.448       2.313       1.166      1.5195E-03
   4    9.998       8.936       7.861       6.777       5.683       4.580       3.453       2.315       1.166      1.5204E-03
   5    9.998       8.936       7.862       6.781       5.699       4.626       3.469       2.319       1.167      1.5218E-03
   6    9.998       8.936       7.863       6.787       5.735       4.862       3.506       2.325       1.168      1.5234E-03
   7    9.998       8.936       7.862       6.781       5.699       4.626       3.469       2.319       1.167      1.5218E-03
   8    9.998       8.936       7.861       6.777       5.683       4.580       3.453       2.315       1.166      1.5204E-03
   9    9.998       8.936       7.860       6.775       5.678       4.570       3.448       2.313       1.166      1.5195E-03
  10    9.998       8.936       7.860       6.774       5.677       4.568       3.446       2.312       1.166      1.5193E-03
1
              HEAD IN LAYER   2 AT END OF TIME STEP   9 IN STRESS PERIOD    2
  ---------------------------------------------------------------------------

            1           2           3           4           5           6           7           8           9          10
 ........................................................................................................................
   1    9.998       8.934       7.858       6.772       5.674       4.565       3.444       2.310       1.163      2.4988E-03
   2    9.998       8.934       7.858       6.772       5.675       4.566       3.444       2.310       1.164      2.4990E-03
   3    9.998       8.934       7.859       6.773       5.677       4.569       3.446       2.311       1.164      2.4997E-03
   4    9.998       8.934       7.860       6.776       5.683       4.581       3.453       2.314       1.165      2.5014E-03
   5    9.998       8.934       7.861       6.781       5.702       4.633       3.472       2.319       1.166      2.5044E-03
   6    9.998       8.935       7.862       6.788       5.742       4.924       3.512       2.326       1.167      2.5072E-03
   7    9.998       8.934       7.861       6.781       5.702       4.633       3.472       2.319       1.166      2.5044E-03
   8    9.998       8.934       7.860       6.776       5.683       4.581       3.453       2.314       1.165      2.5014E-03
   9    9.998       8.934       7.859       6.773       5.677       4.569       3.446       2.311       1.164      2.4998E-03
  10    9.998       8.934       7.858       6.772       5.675       4.566       3.444       2.310       1.164      2.4991E-03
1
              HEAD IN LAYER   3 AT END OF TIME STEP   9 IN STRESS PERIOD    2
  ---------------------------------------------------------------------------

            1           2           3           4           5           6           7           8           9          10
 ........................................................................................................................
   1    9.998       8.932       7.857       6.770       5.672       4.563       3.442       2.308       1.162      2.5480E-03
   2    9.998       8.932       7.857       6.770       5.673       4.564       3.443       2.309       1.162      2.5483E-03
   3    9.998       8.932       7.857       6.772       5.676       4.568       3.445       2.310       1.162      2.5493E-03
   4    9.998       8.933       7.858       6.775       5.684       4.582       3.453       2.313       1.163      2.5514E-03
   5    9.998       8.933       7.860       6.781       5.705       4.635       3.474       2.319       1.165      2.5551E-03
   6    9.998       8.934       7.862       6.789       5.744       4.831       3.514       2.327       1.167      2.5584E-03
   7    9.998       8.933       7.860       6.781       5.705       4.635       3.474       2.319       1.165      2.5551E-03
   8    9.998       8.933       7.858       6.775       5.684       4.582       3.453       2.313       1.163      2.5514E-03
   9    9.998       8.932       7.857       6.772       5.676       4.568       3.445       2.310       1.162      2.5493E-03
  10    9.998       8.932       7.857       6.771       5.674       4.565       3.443       2.309       1.162      2.5485E-03
1
              HEAD IN LAYER   4 AT END OF TIME STEP   9 IN STRESS PERIOD    2
  ---------------------------------------------------------------------------

            1           2           3           4           5           6           7           8           9          10
 ........................................................................................................................
   1    9.998       8.931       7.856       6.769       5.671       4.562       3.441       2.307       1.161      2.5478E-03
   2    9.998       8.931       7.856       6.770       5.672       4.563       3.442       2.307       1.161      2.5482E-03
   3    9.998       8.932       7.856       6.771       5.675       4.568       3.444       2.309       1.161      2.5492E-03
   4    9.998       8.932       7.858       6.774       5.684       4.583       3.453       2.312       1.162      2.5516E-03
   5    9.998       8.933       7.860       6.782       5.706       4.634       3.475       2.319       1.164      2.5557E-03
   6    9.998       8.933       7.861       6.790       5.743       4.778       3.513       2.328       1.166      2.5594E-03
   7    9.998       8.933       7.860       6.782       5.706       4.634       3.475       2.319       1.164      2.5557E-03
   8    9.998       8.932       7.858       6.774       5.684       4.583       3.453       2.312       1.162      2.5516E-03
   9    9.998       8.932       7.856       6.771       5.675       4.568       3.445       2.309       1.161      2.5493E-03
  10    9.998       8.931       7.856       6.770       5.673       4.564       3.442       2.308       1.161      2.5484E-03
1
              HEAD IN LAYER   5 AT END OF TIME STEP   9 IN STRESS PERIOD    2
  ---------------------------------------------------------------------------

            1           2           3           4           5           6           7           8           9          10
 ........................................................................................................................
   1    9.998       8.931       7.855       6.769       5.671       4.562       3.440       2.306       1.160      2.5467E-03
   2    9.998       8.931       7.855       6.769       5.672       4.563       3.441       2.307       1.160      2.5471E-03
   3    9.998       8.931       7.856       6.770       5.675       4.567       3.444       2.308       1.161      2.5482E-03
   4    9.998       8.932       7.857       6.774       5.684       4.583       3.453       2.312       1.162      2.5508E-03
   5    9.998       8.932       7.859       6.782       5.706       4.633       3.476       2.319       1.164      2.5551E-03
   6    9.998       8.933       7.861       6.790       5.742       4.754       3.512       2.328       1.166      2.5589E-03
   7    9.998       8.932       7.859       6.782       5.706       4.633       3.476       2.319       1.164      2.5551E-03
   8    9.998       8.932       7.857       6.774       5.684       4.583       3.453       2.312       1.162      2.5508E-03
   9    9.998       8.931       7.856       6.771       5.675       4.567       3.444       2.308       1.161      2.5483E-03
  10    9.998       8.931       7.855       6.769       5.672       4.563       3.441       2.307       1.160      2.5473E-03

 HEAD WILL BE SAVED ON UNIT   51 AT END OF TIME STEP    9, STRESS PERIOD    2

 DRAWDOWN WILL BE SAVED ON UNIT   52 AT END OF TIME STEP    9, STRESS PERIOD    2
1
  VOLUMETRIC BUDGET FOR ENTIRE MODEL AT END OF TIME STEP    9, STRESS PERIOD   2
  ------------------------------------------------------------------------------

     CUMULATIVE VOLUMES      L**3       RATES FOR THIS TIME STEP      L**3/T
     ------------------                 ------------------------

           IN:                                      IN:
           ---                                      ---
             STORAGE =           0.0000               STORAGE =           0.0000
       CONSTANT HEAD =           0.0000         CONSTANT HEAD =           0.0000
               WELLS =         900.0000                 WELLS =         100.0000
     HEAD DEP BOUNDS =       11657.3955       HEAD DEP BOUNDS =        1165.3871

            TOTAL IN =       12557.3955              TOTAL IN =        1265.3871

          OUT:                                     OUT:
          ----                                     ----
             STORAGE =         890.8495               STORAGE =          97.7635
       CONSTANT HEAD =           0.0000         CONSTANT HEAD =           0.0000
               WELLS =           0.0000                 WELLS =           0.0000
     HEAD DEP BOUNDS =       11666.2646       HEAD DEP BOUNDS =        1167.5956

           TOTAL OUT =       12557.1143             TOTAL OUT =        1265.3590

            IN - OUT =           0.2812              IN - OUT =       2.8076E-02

 PERCENT DISCREPANCY =           0.00     PERCENT DISCREPANCY =           0.00






         TIME SUMMARY AT END OF TIME STEP    9 IN STRESS PERIOD    2
                    SECONDS     MINUTES      HOURS       DAYS        YEARS
                    -----------------------------------------------------------
   TIME STEP LENGTH  86400.      1440.0      24.000      1.0000     2.73785E-03
 STRESS PERIOD TIME 7.77600E+05  12960.      216.00      9.0000     2.46407E-02
         TOTAL TIME 8.64000E+05  14400.      240.00      10.000     2.73785E-02
1
 
 SOLVING FOR HEAD 

 OUTPUT CONTROL FOR STRESS PERIOD    2   TIME STEP   10
    SAVE HEAD FOR ALL LAYERS
    SAVE DRAWDOWN FOR ALL LAYERS
    SAVE BUDGET
    PRINT HEAD FOR ALL LAYERS
    PRINT BUDGET
 UBDSV1 SAVING "         STORAGE" ON UNIT  53 AT TIME STEP 10, STRESS PERIOD   2
 UBDSV2 SAVING "   CONSTANT HEAD" ON UNIT  53 AT TIME STEP 10, STRESS PERIOD   2
 UBDSV1 SAVING "FLOW RIGHT FACE " ON UNIT  53 AT TIME STEP 10, STRESS PERIOD   2
 UBDSV1 SAVING "FLOW FRONT FACE " ON UNIT  53 AT TIME STEP 10, STRESS PERIOD   2
 UBDSV1 SAVING "FLOW LOWER FACE " ON UNIT  53 AT TIME STEP 10, STRESS PERIOD   2

 SAVING SATURATED THICKNESS AND FLOW TERMS ON UNIT   54 FOR MT3DMS
 BY THE LINK-MT3DMS PACKAGE V7 AT TIME STEP   10, STRESS PERIOD    2

1
              HEAD IN LAYER   1 AT END OF TIME STEP  10 IN STRESS PERIOD    2
  ---------------------------------------------------------------------------

            1           2           3           4           5           6           7           8           9          10
 ........................................................................................................................
   1    9.998       8.935       7.860       6.774       5.676       4.567       3.446       2.312       1.165      1.5191E-03
   2    9.998       8.936       7.860       6.774       5.677       4.568       3.446       2.312       1.166      1.5193E-03
   3    9.998       8.936       7.861       6.775       5.678       4.571       3.448       2.313       1.166      1.5197E-03
   4    9.998       8.936       7.861       6.777       5.685       4.582       3.454       2.315       1.167      1.5207E-03
   5    9.998       8.936       7.863       6.782       5.702       4.633       3.472       2.321       1.168      1.5225E-03
   6    9.998       8.936       7.864       6.789       5.741       4.877       3.512       2.328       1.169      1.5241E-03
   7    9.998       8.936       7.863       6.782       5.702       4.633       3.472       2.321       1.168      1.5225E-03
   8    9.998       8.936       7.861       6.777       5.685       4.582       3.454       2.316       1.167      1.5207E-03
   9    9.998       8.936       7.861       6.775       5.679       4.571       3.448       2.313       1.166      1.5197E-03
  10    9.998       8.936       7.860       6.774       5.677       4.568       3.446       2.312       1.166      1.5193E-03
1
              HEAD IN LAYER   2 AT END OF TIME STEP  10 IN STRESS PERIOD    2
  ---------------------------------------------------------------------------

            1           2           3           4           5           6           7           8           9          10
 ........................................................................................................................
   1    9.998       8.934       7.858       6.772       5.674       4.565       3.444       2.310       1.163      2.4988E-03
   2    9.998       8.934       7.858       6.772       5.675       4.566       3.444       2.310       1.164      2.4991E-03
   3    9.998       8.934       7.859       6.773       5.677       4.570       3.447       2.312       1.164      2.5000E-03
   4    9.998       8.934       7.860       6.776       5.685       4.583       3.454       2.315       1.165      2.5020E-03
   5    9.998       8.935       7.862       6.783       5.706       4.639       3.475       2.321       1.167      2.5055E-03
   6    9.998       8.935       7.863       6.790       5.748       4.936       3.519       2.329       1.168      2.5087E-03
   7    9.998       8.935       7.862       6.783       5.706       4.639       3.475       2.321       1.167      2.5055E-03
   8    9.998       8.934       7.860       6.776       5.685       4.584       3.454       2.315       1.165      2.5020E-03
   9    9.998       8.934       7.859       6.773       5.677       4.570       3.447       2.312       1.164      2.5000E-03
  10    9.998       8.934       7.858       6.772       5.675       4.566       3.445       2.311       1.164      2.4993E-03
1
              HEAD IN LAYER   3 AT END OF TIME STEP  10 IN STRESS PERIOD    2
  ---------------------------------------------------------------------------

            1           2           3           4           5           6           7           8           9          10
 ........................................................................................................................
   1    9.998       8.932       7.857       6.770       5.673       4.563       3.442       2.308       1.162      2.5481E-03
   2    9.998       8.932       7.857       6.771       5.673       4.565       3.443       2.309       1.162      2.5485E-03
   3    9.998       8.933       7.857       6.772       5.676       4.569       3.446       2.310       1.162      2.5496E-03
   4    9.998       8.933       7.859       6.776       5.685       4.584       3.455       2.314       1.164      2.5520E-03
   5    9.998       8.933       7.861       6.783       5.708       4.640       3.477       2.321       1.166      2.5563E-03
   6    9.998       8.934       7.863       6.792       5.749       4.842       3.519       2.329       1.167      2.5601E-03
   7    9.998       8.933       7.861       6.783       5.708       4.640       3.477       2.321       1.166      2.5563E-03
   8    9.998       8.933       7.859       6.776       5.685       4.584       3.455       2.314       1.164      2.5521E-03
   9    9.998       8.933       7.857       6.772       5.677       4.569       3.446       2.310       1.162      2.5496E-03
  10    9.998       8.932       7.857       6.771       5.674       4.565       3.443       2.309       1.162      2.5487E-03
1
              HEAD IN LAYER   4 AT END OF TIME STEP  10 IN STRESS PERIOD    2
  ---------------------------------------------------------------------------

            1           2           3           4           5           6           7           8           9          10
 ........................................................................................................................
   1    9.998       8.931       7.856       6.769       5.672       4.562       3.441       2.307       1.161      2.5479E-03
   2    9.998       8.931       7.856       6.770       5.673       4.564       3.442       2.308       1.161      2.5483E-03
   3    9.998       8.932       7.856       6.771       5.676       4.568       3.445       2.309       1.161      2.5496E-03
   4    9.998       8.932       7.858       6.775       5.685       4.585       3.455       2.313       1.163      2.5524E-03
   5    9.998       8.933       7.860       6.783       5.709       4.639       3.479       2.321       1.165      2.5571E-03
   6    9.998       8.933       7.862       6.792       5.748       4.787       3.518       2.330       1.167      2.5611E-03
   7    9.998       8.933       7.860       6.783       5.709       4.639       3.479       2.321       1.165      2.5571E-03
   8    9.998       8.932       7.858       6.775       5.685       4.585       3.455       2.313       1.163      2.5524E-03
   9    9.998       8.932       7.857       6.771       5.676       4.569       3.445       2.309       1.161      2.5496E-03
  10    9.998       8.932       7.856       6.770       5.673       4.564       3.442       2.308       1.161      2.5486E-03
1
              HEAD IN LAYER   5 AT END OF TIME STEP  10 IN STRESS PERIOD    2
  ---------------------------------------------------------------------------

            1           2           3           4           5           6           7           8           9          10
 ........................................................................................................................
   1    9.998       8.931       7.855       6.769       5.671       4.562       3.440       2.306       1.160      2.5468E-03
   2    9.998       8.931       7.855       6.769       5.672       4.563       3.441       2.307       1.160      2.5473E-03
   3    9.998       8.931       7.856       6.771       5.676       4.568       3.445       2.309       1.161      2.5486E-03
   4    9.998       8.932       7.858       6.775       5.685       4.585       3.455       2.313       1.162      2.5515E-03
   5    9.998       8.932       7.860       6.783       5.710       4.638       3.479       2.321       1.165      2.5565E-03
   6    9.998       8.933       7.862       6.792       5.747       4.762       3.517       2.330       1.167      2.5607E-03
   7    9.998       8.932       7.860       6.783       5.710       4.638       3.479       2.321       1.165      2.5565E-03
   8    9.998       8.932       7.858       6.775       5.686       4.585       3.455       2.313       1.162      2.5515E-03
   9    9.998       8.931       7.856       6.771       5.676       4.568       3.445       2.309       1.161      2.5487E-03
  10    9.998       8.931       7.855       6.769       5.673       4.564       3.442       2.307       1.160      2.5475E-03

 HEAD WILL BE SAVED ON UNIT   51 AT END OF TIME STEP   10, STRESS PERIOD    2

 DRAWDOWN WILL BE SAVED ON UNIT   52 AT END OF TIME STEP   10, STRESS PERIOD    2
1
  VOLUMETRIC BUDGET FOR ENTIRE MODEL AT END OF TIME STEP   10, STRESS PERIOD   2
  ------------------------------------------------------------------------------

     CUMULATIVE VOLUMES      L**3       RATES FOR THIS TIME STEP      L**3/T
     ------------------                 ------------------------

           IN:                                      IN:
           ---                                      ---
             STORAGE =           0.0000               STORAGE =           0.0000
       CONSTANT HEAD =           0.0000         CONSTANT HEAD =           0.0000
               WELLS =        1000.0000                 WELLS =         100.0000
     HEAD DEP BOUNDS =       12822.6484       HEAD DEP BOUNDS =        1165.2533

            TOTAL IN =       13822.6484              TOTAL IN =        1265.2533

          OUT:                                     OUT:
          ----                                     ----
             STORAGE =         988.1980               STORAGE =          97.3485
       CONSTANT HEAD =           0.0000         CONSTANT HEAD =           0.0000
               WELLS =           0.0000                 WELLS =           0.0000
     HEAD DEP BOUNDS =       12834.1543       HEAD DEP BOUNDS =        1167.8898

           TOTAL OUT =       13822.3525             TOTAL OUT =        1265.2383

            IN - OUT =           0.2959              IN - OUT =       1.5015E-02

 PERCENT DISCREPANCY =           0.00     PERCENT DISCREPANCY =           0.00






         TIME SUMMARY AT END OF TIME STEP   10 IN STRESS PERIOD    2
                    SECONDS     MINUTES      HOURS       DAYS        YEARS
                    -----------------------------------------------------------
   TIME STEP LENGTH  86400.      1440.0      24.000      1.0000     2.73785E-03
 STRESS PERIOD TIME 8.64000E+05  14400.      240.00      10.000     2.73785E-02
         TOTAL TIME 9.50400E+05  15840.      264.00      11.000     3.01164E-02
1
 
 SOLVING FOR HEAD 

 OUTPUT CONTROL FOR STRESS PERIOD    2   TIME STEP   11
    SAVE HEAD FOR ALL LAYERS
    SAVE DRAWDOWN FOR ALL LAYERS
    SAVE BUDGET
    PRINT HEAD FOR ALL LAYERS
    PRINT BUDGET
 UBDSV1 SAVING "         STORAGE" ON UNIT  53 AT TIME STEP 11, STRESS PERIOD   2
 UBDSV2 SAVING "   CONSTANT HEAD" ON UNIT  53 AT TIME STEP 11, STRESS PERIOD   2
 UBDSV1 SAVING "FLOW RIGHT FACE " ON UNIT  53 AT TIME STEP 11, STRESS PERIOD   2
 UBDSV1 SAVING "FLOW FRONT FACE " ON UNIT  53 AT TIME STEP 11, STRESS PERIOD   2
 UBDSV1 SAVING "FLOW LOWER FACE " ON UNIT  53 AT TIME STEP 11, STRESS PERIOD   2

 SAVING SATURATED THICKNESS AND FLOW TERMS ON UNIT   54 FOR MT3DMS
 BY THE LINK-MT3DMS PACKAGE V7 AT TIME STEP   11, STRESS PERIOD    2

1
              HEAD IN LAYER   1 AT END OF TIME STEP  11 IN STRESS PERIOD    2
  ---------------------------------------------------------------------------

            1           2           3           4           5           6           7           8           9          10
 ........................................................................................................................
   1    9.998       8.935       7.860       6.774       5.676       4.567       3.446       2.312       1.165      1.5192E-03
   2    9.998       8.936       7.860       6.774       5.677       4.568       3.446       2.312       1.166      1.5193E-03
   3    9.998       8.936       7.861       6.775       5.679       4.571       3.449       2.313       1.166      1.5198E-03
   4    9.998       8.936       7.862       6.778       5.686       4.584       3.456       2.316       1.167      1.5211E-03
   5    9.998       8.936       7.863       6.784       5.706       4.639       3.476       2.322       1.168      1.5231E-03
   6    9.998       8.937       7.865       6.791       5.747       4.890       3.518       2.330       1.170      1.5251E-03
   7    9.998       8.936       7.863       6.784       5.706       4.639       3.476       2.322       1.168      1.5231E-03
   8    9.998       8.936       7.862       6.778       5.686       4.584       3.456       2.316       1.167      1.5211E-03
   9    9.998       8.936       7.861       6.775       5.679       4.571       3.449       2.313       1.166      1.5198E-03
  10    9.998       8.936       7.860       6.774       5.677       4.568       3.447       2.313       1.166      1.5194E-03
1
              HEAD IN LAYER   2 AT END OF TIME STEP  11 IN STRESS PERIOD    2
  ---------------------------------------------------------------------------

            1           2           3           4           5           6           7           8           9          10
 ........................................................................................................................
   1    9.998       8.934       7.858       6.772       5.674       4.565       3.444       2.310       1.164      2.4989E-03
   2    9.998       8.934       7.858       6.772       5.675       4.566       3.445       2.311       1.164      2.4992E-03
   3    9.998       8.934       7.859       6.774       5.678       4.570       3.447       2.312       1.164      2.5003E-03
   4    9.998       8.934       7.860       6.777       5.687       4.586       3.456       2.315       1.165      2.5027E-03
   5    9.998       8.935       7.862       6.784       5.709       4.645       3.479       2.322       1.167      2.5067E-03
   6    9.998       8.935       7.864       6.793       5.754       4.947       3.524       2.331       1.169      2.5103E-03
   7    9.998       8.935       7.862       6.784       5.709       4.645       3.479       2.322       1.167      2.5067E-03
   8    9.998       8.934       7.860       6.777       5.687       4.586       3.456       2.315       1.165      2.5027E-03
   9    9.998       8.934       7.859       6.774       5.678       4.571       3.448       2.312       1.164      2.5004E-03
  10    9.998       8.934       7.858       6.772       5.675       4.567       3.445       2.311       1.164      2.4994E-03
1
              HEAD IN LAYER   3 AT END OF TIME STEP  11 IN STRESS PERIOD    2
  ---------------------------------------------------------------------------

            1           2           3           4           5           6           7           8           9          10
 ........................................................................................................................
   1    9.998       8.932       7.857       6.770       5.673       4.564       3.442       2.308       1.162      2.5482E-03
   2    9.998       8.932       7.857       6.771       5.674       4.565       3.443       2.309       1.162      2.5486E-03
   3    9.998       8.933       7.858       6.772       5.677       4.570       3.446       2.310       1.163      2.5499E-03
   4    9.998       8.933       7.859       6.777       5.687       4.587       3.456       2.315       1.164      2.5528E-03
   5    9.998       8.934       7.861       6.785       5.712       4.646       3.481       2.323       1.166      2.5576E-03
   6    9.998       8.934       7.863       6.794       5.755       4.851       3.525       2.332       1.168      2.5617E-03
   7    9.998       8.934       7.861       6.785       5.712       4.646       3.481       2.323       1.166      2.5576E-03
   8    9.998       8.933       7.859       6.777       5.687       4.587       3.456       2.315       1.164      2.5528E-03
   9    9.998       8.933       7.858       6.773       5.677       4.570       3.447       2.311       1.163      2.5500E-03
  10    9.998       8.932       7.857       6.771       5.674       4.565       3.444       2.309       1.162      2.5489E-03
1
              HEAD IN LAYER   4 AT END OF TIME STEP  11 IN STRESS PERIOD    2
  ---------------------------------------------------------------------------

            1           2           3           4           5           6           7           8           9          10
 ........................................................................................................................
   1    9.998       8.931       7.856       6.769       5.672       4.562       3.441       2.307       1.161      2.5480E-03
   2    9.998       8.932       7.856       6.770       5.673       4.564       3.442       2.308       1.161      2.5485E-03
   3    9.998       8.932       7.857       6.772       5.677       4.569       3.446       2.310       1.162      2.5499E-03
   4    9.998       8.932       7.858       6.776       5.687       4.587       3.456       2.314       1.163      2.5531E-03
   5    9.998       8.933       7.861       6.785       5.713       4.644       3.482       2.323       1.166      2.5584E-03
   6    9.998       8.933       7.863       6.794       5.753       4.795       3.523       2.332       1.168      2.5629E-03
   7    9.998       8.933       7.861       6.785       5.713       4.644       3.482       2.323       1.166      2.5584E-03
   8    9.998       8.932       7.858       6.776       5.687       4.587       3.456       2.314       1.163      2.5532E-03
   9    9.998       8.932       7.857       6.772       5.677       4.569       3.446       2.310       1.162      2.5500E-03
  10    9.998       8.932       7.856       6.770       5.673       4.565       3.443       2.308       1.161      2.5488E-03
1
              HEAD IN LAYER   5 AT END OF TIME STEP  11 IN STRESS PERIOD    2
  ---------------------------------------------------------------------------

            1           2           3           4           5           6           7           8           9          10
 ........................................................................................................................
   1    9.998       8.931       7.855       6.769       5.671       4.562       3.440       2.307       1.160      2.5469E-03
   2    9.998       8.931       7.855       6.769       5.672       4.563       3.442       2.307       1.160      2.5474E-03
   3    9.998       8.931       7.856       6.771       5.676       4.569       3.446       2.309       1.161      2.5490E-03
   4    9.998       8.932       7.858       6.776       5.687       4.587       3.456       2.314       1.163      2.5523E-03
   5    9.998       8.933       7.861       6.785       5.713       4.643       3.483       2.323       1.165      2.5579E-03
   6    9.998       8.933       7.863       6.795       5.752       4.770       3.522       2.332       1.167      2.5625E-03
   7    9.998       8.933       7.861       6.785       5.713       4.643       3.483       2.323       1.165      2.5579E-03
   8    9.998       8.932       7.858       6.776       5.687       4.587       3.457       2.314       1.163      2.5524E-03
   9    9.998       8.931       7.856       6.771       5.676       4.569       3.446       2.309       1.161      2.5491E-03
  10    9.998       8.931       7.856       6.770       5.673       4.564       3.442       2.308       1.161      2.5477E-03

 HEAD WILL BE SAVED ON UNIT   51 AT END OF TIME STEP   11, STRESS PERIOD    2

 DRAWDOWN WILL BE SAVED ON UNIT   52 AT END OF TIME STEP   11, STRESS PERIOD    2
1
  VOLUMETRIC BUDGET FOR ENTIRE MODEL AT END OF TIME STEP   11, STRESS PERIOD   2
  ------------------------------------------------------------------------------

     CUMULATIVE VOLUMES      L**3       RATES FOR THIS TIME STEP      L**3/T
     ------------------                 ------------------------

           IN:                                      IN:
           ---                                      ---
             STORAGE =           0.0000               STORAGE =           0.0000
       CONSTANT HEAD =           0.0000         CONSTANT HEAD =           0.0000
               WELLS =        1100.0000                 WELLS =         100.0000
     HEAD DEP BOUNDS =       13987.7705       HEAD DEP BOUNDS =        1165.1222

            TOTAL IN =       15087.7705              TOTAL IN =        1265.1222

          OUT:                                     OUT:
          ----                                     ----
             STORAGE =        1085.0977               STORAGE =          96.8996
       CONSTANT HEAD =           0.0000         CONSTANT HEAD =           0.0000
               WELLS =           0.0000                 WELLS =           0.0000
     HEAD DEP BOUNDS =       14002.3584       HEAD DEP BOUNDS =        1168.2037

           TOTAL OUT =       15087.4561             TOTAL OUT =        1265.1034

            IN - OUT =           0.3145              IN - OUT =       1.8799E-02

 PERCENT DISCREPANCY =           0.00     PERCENT DISCREPANCY =           0.00






         TIME SUMMARY AT END OF TIME STEP   11 IN STRESS PERIOD    2
                    SECONDS     MINUTES      HOURS       DAYS        YEARS
                    -----------------------------------------------------------
   TIME STEP LENGTH  86400.      1440.0      24.000      1.0000     2.73785E-03
 STRESS PERIOD TIME 9.50400E+05  15840.      264.00      11.000     3.01164E-02
         TOTAL TIME 1.03680E+06  17280.      288.00      12.000     3.28542E-02
1
 
 SOLVING FOR HEAD 

 OUTPUT CONTROL FOR STRESS PERIOD    2   TIME STEP   12
    SAVE HEAD FOR ALL LAYERS
    SAVE DRAWDOWN FOR ALL LAYERS
    SAVE BUDGET
    PRINT HEAD FOR ALL LAYERS
    PRINT BUDGET
 UBDSV1 SAVING "         STORAGE" ON UNIT  53 AT TIME STEP 12, STRESS PERIOD   2
 UBDSV2 SAVING "   CONSTANT HEAD" ON UNIT  53 AT TIME STEP 12, STRESS PERIOD   2
 UBDSV1 SAVING "FLOW RIGHT FACE " ON UNIT  53 AT TIME STEP 12, STRESS PERIOD   2
 UBDSV1 SAVING "FLOW FRONT FACE " ON UNIT  53 AT TIME STEP 12, STRESS PERIOD   2
 UBDSV1 SAVING "FLOW LOWER FACE " ON UNIT  53 AT TIME STEP 12, STRESS PERIOD   2

 SAVING SATURATED THICKNESS AND FLOW TERMS ON UNIT   54 FOR MT3DMS
 BY THE LINK-MT3DMS PACKAGE V7 AT TIME STEP   12, STRESS PERIOD    2

1
              HEAD IN LAYER   1 AT END OF TIME STEP  12 IN STRESS PERIOD    2
  ---------------------------------------------------------------------------

            1           2           3           4           5           6           7           8           9          10
 ........................................................................................................................
   1    9.998       8.935       7.860       6.774       5.676       4.567       3.446       2.312       1.165      1.5192E-03
   2    9.998       8.936       7.860       6.774       5.677       4.568       3.447       2.312       1.166      1.5194E-03
   3    9.998       8.936       7.861       6.775       5.680       4.572       3.449       2.314       1.166      1.5201E-03
   4    9.998       8.936       7.862       6.779       5.688       4.587       3.457       2.317       1.167      1.5214E-03
   5    9.998       8.937       7.864       6.785       5.709       4.645       3.479       2.324       1.169      1.5238E-03
   6    9.998       8.937       7.865       6.793       5.753       4.902       3.524       2.332       1.170      1.5260E-03
   7    9.998       8.937       7.864       6.785       5.709       4.645       3.479       2.324       1.169      1.5238E-03
   8    9.998       8.936       7.862       6.779       5.688       4.587       3.457       2.317       1.167      1.5214E-03
   9    9.998       8.936       7.861       6.776       5.680       4.572       3.449       2.314       1.166      1.5201E-03
  10    9.998       8.936       7.860       6.774       5.677       4.569       3.447       2.313       1.166      1.5195E-03
1
              HEAD IN LAYER   2 AT END OF TIME STEP  12 IN STRESS PERIOD    2
  ---------------------------------------------------------------------------

            1           2           3           4           5           6           7           8           9          10
 ........................................................................................................................
   1    9.998       8.934       7.858       6.772       5.674       4.565       3.444       2.310       1.164      2.4989E-03
   2    9.998       8.934       7.858       6.772       5.675       4.567       3.445       2.311       1.164      2.4994E-03
   3    9.998       8.934       7.859       6.774       5.679       4.571       3.448       2.312       1.164      2.5006E-03
   4    9.998       8.934       7.861       6.778       5.688       4.588       3.458       2.316       1.166      2.5033E-03
   5    9.998       8.935       7.863       6.786       5.713       4.651       3.482       2.324       1.168      2.5079E-03
   6    9.998       8.935       7.865       6.795       5.759       4.957       3.530       2.333       1.170      2.5119E-03
   7    9.998       8.935       7.863       6.786       5.713       4.651       3.482       2.324       1.168      2.5079E-03
   8    9.998       8.934       7.861       6.778       5.688       4.588       3.458       2.316       1.166      2.5034E-03
   9    9.998       8.934       7.859       6.774       5.679       4.571       3.448       2.312       1.164      2.5007E-03
  10    9.998       8.934       7.859       6.773       5.676       4.567       3.445       2.311       1.164      2.4996E-03
1
              HEAD IN LAYER   3 AT END OF TIME STEP  12 IN STRESS PERIOD    2
  ---------------------------------------------------------------------------

            1           2           3           4           5           6           7           8           9          10
 ........................................................................................................................
   1    9.998       8.932       7.857       6.770       5.673       4.564       3.442       2.308       1.162      2.5482E-03
   2    9.998       8.932       7.857       6.771       5.674       4.565       3.443       2.309       1.162      2.5488E-03
   3    9.998       8.933       7.858       6.773       5.678       4.571       3.447       2.311       1.163      2.5503E-03
   4    9.998       8.933       7.859       6.778       5.689       4.589       3.458       2.315       1.164      2.5536E-03
   5    9.998       8.934       7.862       6.786       5.715       4.651       3.484       2.324       1.167      2.5589E-03
   6    9.998       8.934       7.864       6.796       5.760       4.859       3.530       2.334       1.169      2.5635E-03
   7    9.998       8.934       7.862       6.786       5.715       4.651       3.484       2.324       1.167      2.5590E-03
   8    9.998       8.933       7.860       6.778       5.689       4.589       3.458       2.315       1.164      2.5536E-03
   9    9.998       8.933       7.858       6.773       5.678       4.571       3.447       2.311       1.163      2.5504E-03
  10    9.998       8.932       7.857       6.771       5.675       4.566       3.444       2.309       1.162      2.5491E-03
1
              HEAD IN LAYER   4 AT END OF TIME STEP  12 IN STRESS PERIOD    2
  ---------------------------------------------------------------------------

            1           2           3           4           5           6           7           8           9          10
 ........................................................................................................................
   1    9.998       8.931       7.856       6.769       5.672       4.563       3.441       2.307       1.161      2.5481E-03
   2    9.998       8.932       7.856       6.770       5.673       4.564       3.442       2.308       1.161      2.5487E-03
   3    9.998       8.932       7.857       6.772       5.677       4.570       3.447       2.310       1.162      2.5504E-03
   4    9.998       8.932       7.859       6.777       5.689       4.589       3.458       2.315       1.163      2.5540E-03
   5    9.998       8.933       7.862       6.787       5.716       4.649       3.486       2.324       1.166      2.5598E-03
   6    9.998       8.934       7.864       6.797       5.758       4.803       3.528       2.334       1.168      2.5647E-03
   7    9.998       8.933       7.862       6.787       5.716       4.649       3.486       2.324       1.166      2.5598E-03
   8    9.998       8.932       7.859       6.777       5.689       4.590       3.458       2.315       1.163      2.5540E-03
   9    9.998       8.932       7.857       6.772       5.677       4.570       3.447       2.310       1.162      2.5505E-03
  10    9.998       8.932       7.856       6.770       5.674       4.565       3.443       2.308       1.161      2.5490E-03
1
              HEAD IN LAYER   5 AT END OF TIME STEP  12 IN STRESS PERIOD    2
  ---------------------------------------------------------------------------

            1           2           3           4           5           6           7           8           9          10
 ........................................................................................................................
   1    9.998       8.931       7.855       6.769       5.671       4.562       3.441       2.307       1.160      2.5470E-03
   2    9.998       8.931       7.856       6.770       5.673       4.564       3.442       2.307       1.161      2.5476E-03
   3    9.998       8.931       7.856       6.772       5.677       4.570       3.446       2.310       1.161      2.5494E-03
   4    9.998       8.932       7.858       6.777       5.689       4.590       3.458       2.315       1.163      2.5532E-03
   5    9.998       8.933       7.861       6.787       5.717       4.648       3.486       2.324       1.166      2.5593E-03
   6    9.998       8.933       7.864       6.797       5.757       4.777       3.527       2.335       1.168      2.5643E-03
   7    9.998       8.933       7.861       6.787       5.717       4.648       3.486       2.324       1.166      2.5593E-03
   8    9.998       8.932       7.858       6.777       5.689       4.590       3.458       2.315       1.163      2.5532E-03
   9    9.998       8.931       7.857       6.772       5.677       4.570       3.446       2.310       1.161      2.5495E-03
  10    9.998       8.931       7.856       6.770       5.673       4.565       3.443       2.308       1.161      2.5480E-03

 HEAD WILL BE SAVED ON UNIT   51 AT END OF TIME STEP   12, STRESS PERIOD    2

 DRAWDOWN WILL BE SAVED ON UNIT   52 AT END OF TIME STEP   12, STRESS PERIOD    2
1
  VOLUMETRIC BUDGET FOR ENTIRE MODEL AT END OF TIME STEP   12, STRESS PERIOD   2
  ------------------------------------------------------------------------------

     CUMULATIVE VOLUMES      L**3       RATES FOR THIS TIME STEP      L**3/T
     ------------------                 ------------------------

           IN:                                      IN:
           ---                                      ---
             STORAGE =           0.0000               STORAGE =           0.0000
       CONSTANT HEAD =           0.0000         CONSTANT HEAD =           0.0000
               WELLS =        1200.0000                 WELLS =         100.0000
     HEAD DEP BOUNDS =       15152.7363       HEAD DEP BOUNDS =        1164.9655

            TOTAL IN =       16352.7363              TOTAL IN =        1264.9655

          OUT:                                     OUT:
          ----                                     ----
             STORAGE =        1181.5187               STORAGE =          96.4211
       CONSTANT HEAD =           0.0000         CONSTANT HEAD =           0.0000
               WELLS =           0.0000                 WELLS =           0.0000
     HEAD DEP BOUNDS =       15170.8955       HEAD DEP BOUNDS =        1168.5372

           TOTAL OUT =       16352.4141             TOTAL OUT =        1264.9583

            IN - OUT =           0.3223              IN - OUT =       7.2021E-03

 PERCENT DISCREPANCY =           0.00     PERCENT DISCREPANCY =           0.00






         TIME SUMMARY AT END OF TIME STEP   12 IN STRESS PERIOD    2
                    SECONDS     MINUTES      HOURS       DAYS        YEARS
                    -----------------------------------------------------------
   TIME STEP LENGTH  86400.      1440.0      24.000      1.0000     2.73785E-03
 STRESS PERIOD TIME 1.03680E+06  17280.      288.00      12.000     3.28542E-02
         TOTAL TIME 1.12320E+06  18720.      312.00      13.000     3.55921E-02
1
 
 SOLVING FOR HEAD 

 OUTPUT CONTROL FOR STRESS PERIOD    2   TIME STEP   13
    SAVE HEAD FOR ALL LAYERS
    SAVE DRAWDOWN FOR ALL LAYERS
    SAVE BUDGET
    PRINT HEAD FOR ALL LAYERS
    PRINT BUDGET
 UBDSV1 SAVING "         STORAGE" ON UNIT  53 AT TIME STEP 13, STRESS PERIOD   2
 UBDSV2 SAVING "   CONSTANT HEAD" ON UNIT  53 AT TIME STEP 13, STRESS PERIOD   2
 UBDSV1 SAVING "FLOW RIGHT FACE " ON UNIT  53 AT TIME STEP 13, STRESS PERIOD   2
 UBDSV1 SAVING "FLOW FRONT FACE " ON UNIT  53 AT TIME STEP 13, STRESS PERIOD   2
 UBDSV1 SAVING "FLOW LOWER FACE " ON UNIT  53 AT TIME STEP 13, STRESS PERIOD   2

 SAVING SATURATED THICKNESS AND FLOW TERMS ON UNIT   54 FOR MT3DMS
 BY THE LINK-MT3DMS PACKAGE V7 AT TIME STEP   13, STRESS PERIOD    2

1
              HEAD IN LAYER   1 AT END OF TIME STEP  13 IN STRESS PERIOD    2
  ---------------------------------------------------------------------------

            1           2           3           4           5           6           7           8           9          10
 ........................................................................................................................
   1    9.998       8.936       7.860       6.774       5.676       4.567       3.446       2.312       1.165      1.5192E-03
   2    9.998       8.936       7.860       6.774       5.677       4.568       3.447       2.313       1.166      1.5195E-03
   3    9.998       8.936       7.861       6.776       5.680       4.573       3.450       2.314       1.166      1.5202E-03
   4    9.998       8.936       7.862       6.780       5.689       4.589       3.459       2.318       1.167      1.5218E-03
   5    9.998       8.937       7.864       6.787       5.713       4.650       3.483       2.325       1.169      1.5246E-03
   6    9.998       8.937       7.866       6.796       5.759       4.913       3.530       2.334       1.171      1.5269E-03
   7    9.998       8.937       7.864       6.787       5.713       4.650       3.483       2.325       1.169      1.5246E-03
   8    9.998       8.936       7.862       6.780       5.689       4.589       3.459       2.318       1.167      1.5218E-03
   9    9.998       8.936       7.861       6.776       5.680       4.573       3.450       2.314       1.166      1.5203E-03
  10    9.998       8.936       7.861       6.775       5.678       4.569       3.447       2.313       1.166      1.5196E-03
1
              HEAD IN LAYER   2 AT END OF TIME STEP  13 IN STRESS PERIOD    2
  ---------------------------------------------------------------------------

            1           2           3           4           5           6           7           8           9          10
 ........................................................................................................................
   1    9.998       8.934       7.858       6.772       5.674       4.565       3.444       2.310       1.164      2.4990E-03
   2    9.998       8.934       7.859       6.773       5.676       4.567       3.445       2.311       1.164      2.4995E-03
   3    9.998       8.934       7.859       6.774       5.679       4.572       3.449       2.313       1.165      2.5010E-03
   4    9.998       8.935       7.861       6.779       5.690       4.590       3.459       2.317       1.166      2.5041E-03
   5    9.998       8.935       7.864       6.788       5.716       4.656       3.486       2.326       1.168      2.5092E-03
   6    9.998       8.936       7.866       6.797       5.765       4.966       3.535       2.335       1.170      2.5136E-03
   7    9.998       8.935       7.864       6.788       5.716       4.656       3.486       2.326       1.168      2.5092E-03
   8    9.998       8.935       7.861       6.779       5.690       4.590       3.459       2.317       1.166      2.5041E-03
   9    9.998       8.934       7.859       6.775       5.679       4.572       3.449       2.313       1.165      2.5011E-03
  10    9.998       8.934       7.859       6.773       5.676       4.567       3.446       2.311       1.164      2.4998E-03
1
              HEAD IN LAYER   3 AT END OF TIME STEP  13 IN STRESS PERIOD    2
  ---------------------------------------------------------------------------

            1           2           3           4           5           6           7           8           9          10
 ........................................................................................................................
   1    9.998       8.932       7.857       6.770       5.673       4.564       3.442       2.309       1.162      2.5483E-03
   2    9.998       8.932       7.857       6.771       5.674       4.566       3.444       2.309       1.162      2.5490E-03
   3    9.998       8.933       7.858       6.773       5.679       4.572       3.448       2.311       1.163      2.5507E-03
   4    9.998       8.933       7.860       6.779       5.690       4.591       3.460       2.316       1.165      2.5544E-03
   5    9.998       8.934       7.863       6.788       5.718       4.656       3.488       2.326       1.167      2.5604E-03
   6    9.998       8.935       7.865       6.798       5.765       4.867       3.535       2.336       1.170      2.5653E-03
   7    9.998       8.934       7.863       6.788       5.718       4.656       3.488       2.326       1.167      2.5604E-03
   8    9.998       8.933       7.860       6.779       5.690       4.591       3.460       2.316       1.165      2.5545E-03
   9    9.998       8.933       7.858       6.774       5.679       4.572       3.448       2.311       1.163      2.5508E-03
  10    9.998       8.933       7.857       6.772       5.675       4.566       3.444       2.310       1.162      2.5493E-03
1
              HEAD IN LAYER   4 AT END OF TIME STEP  13 IN STRESS PERIOD    2
  ---------------------------------------------------------------------------

            1           2           3           4           5           6           7           8           9          10
 ........................................................................................................................
   1    9.998       8.931       7.856       6.769       5.672       4.563       3.441       2.307       1.161      2.5482E-03
   2    9.998       8.932       7.856       6.770       5.673       4.565       3.443       2.308       1.161      2.5489E-03
   3    9.998       8.932       7.857       6.773       5.678       4.571       3.447       2.310       1.162      2.5508E-03
   4    9.998       8.933       7.859       6.778       5.691       4.592       3.460       2.316       1.164      2.5549E-03
   5    9.998       8.934       7.862       6.788       5.719       4.654       3.489       2.326       1.167      2.5613E-03
   6    9.998       8.934       7.865       6.799       5.763       4.810       3.533       2.337       1.169      2.5665E-03
   7    9.998       8.934       7.862       6.788       5.719       4.654       3.489       2.326       1.167      2.5613E-03
   8    9.998       8.933       7.859       6.778       5.691       4.592       3.460       2.316       1.164      2.5549E-03
   9    9.998       8.932       7.857       6.773       5.678       4.571       3.448       2.311       1.162      2.5510E-03
  10    9.998       8.932       7.856       6.771       5.674       4.566       3.443       2.309       1.161      2.5493E-03
1
              HEAD IN LAYER   5 AT END OF TIME STEP  13 IN STRESS PERIOD    2
  ---------------------------------------------------------------------------

            1           2           3           4           5           6           7           8           9          10
 ........................................................................................................................
   1    9.998       8.931       7.855       6.769       5.671       4.562       3.441       2.307       1.160      2.5471E-03
   2    9.998       8.931       7.856       6.770       5.673       4.564       3.442       2.308       1.161      2.5478E-03
   3    9.998       8.932       7.857       6.772       5.678       4.571       3.447       2.310       1.162      2.5499E-03
   4    9.998       8.932       7.859       6.778       5.691       4.592       3.460       2.316       1.163      2.5541E-03
   5    9.998       8.933       7.862       6.789       5.720       4.652       3.489       2.326       1.167      2.5608E-03
   6    9.998       8.934       7.865       6.799       5.761       4.783       3.531       2.337       1.169      2.5661E-03
   7    9.998       8.933       7.862       6.789       5.720       4.652       3.489       2.326       1.167      2.5608E-03
   8    9.998       8.932       7.859       6.778       5.691       4.592       3.460       2.316       1.164      2.5542E-03
   9    9.998       8.932       7.857       6.772       5.678       4.571       3.447       2.310       1.162      2.5500E-03
  10    9.998       8.931       7.856       6.770       5.674       4.565       3.443       2.308       1.161      2.5483E-03

 HEAD WILL BE SAVED ON UNIT   51 AT END OF TIME STEP   13, STRESS PERIOD    2

 DRAWDOWN WILL BE SAVED ON UNIT   52 AT END OF TIME STEP   13, STRESS PERIOD    2
1
  VOLUMETRIC BUDGET FOR ENTIRE MODEL AT END OF TIME STEP   13, STRESS PERIOD   2
  ------------------------------------------------------------------------------

     CUMULATIVE VOLUMES      L**3       RATES FOR THIS TIME STEP      L**3/T
     ------------------                 ------------------------

           IN:                                      IN:
           ---                                      ---
             STORAGE =           0.0000               STORAGE =           0.0000
       CONSTANT HEAD =           0.0000         CONSTANT HEAD =           0.0000
               WELLS =        1300.0000                 WELLS =         100.0000
     HEAD DEP BOUNDS =       16317.5479       HEAD DEP BOUNDS =        1164.8118

            TOTAL IN =       17617.5469              TOTAL IN =        1264.8118

          OUT:                                     OUT:
          ----                                     ----
             STORAGE =        1277.4402               STORAGE =          95.9215
       CONSTANT HEAD =           0.0000         CONSTANT HEAD =           0.0000
               WELLS =           0.0000                 WELLS =           0.0000
     HEAD DEP BOUNDS =       16339.7803       HEAD DEP BOUNDS =        1168.8844

           TOTAL OUT =       17617.2207             TOTAL OUT =        1264.8059

            IN - OUT =           0.3262              IN - OUT =       5.8594E-03

 PERCENT DISCREPANCY =           0.00     PERCENT DISCREPANCY =           0.00






         TIME SUMMARY AT END OF TIME STEP   13 IN STRESS PERIOD    2
                    SECONDS     MINUTES      HOURS       DAYS        YEARS
                    -----------------------------------------------------------
   TIME STEP LENGTH  86400.      1440.0      24.000      1.0000     2.73785E-03
 STRESS PERIOD TIME 1.12320E+06  18720.      312.00      13.000     3.55921E-02
         TOTAL TIME 1.20960E+06  20160.      336.00      14.000     3.83299E-02
1
 
 SOLVING FOR HEAD 

 OUTPUT CONTROL FOR STRESS PERIOD    2   TIME STEP   14
    SAVE HEAD FOR ALL LAYERS
    SAVE DRAWDOWN FOR ALL LAYERS
    SAVE BUDGET
    PRINT HEAD FOR ALL LAYERS
    PRINT BUDGET
 UBDSV1 SAVING "         STORAGE" ON UNIT  53 AT TIME STEP 14, STRESS PERIOD   2
 UBDSV2 SAVING "   CONSTANT HEAD" ON UNIT  53 AT TIME STEP 14, STRESS PERIOD   2
 UBDSV1 SAVING "FLOW RIGHT FACE " ON UNIT  53 AT TIME STEP 14, STRESS PERIOD   2
 UBDSV1 SAVING "FLOW FRONT FACE " ON UNIT  53 AT TIME STEP 14, STRESS PERIOD   2
 UBDSV1 SAVING "FLOW LOWER FACE " ON UNIT  53 AT TIME STEP 14, STRESS PERIOD   2

 SAVING SATURATED THICKNESS AND FLOW TERMS ON UNIT   54 FOR MT3DMS
 BY THE LINK-MT3DMS PACKAGE V7 AT TIME STEP   14, STRESS PERIOD    2

1
              HEAD IN LAYER   1 AT END OF TIME STEP  14 IN STRESS PERIOD    2
  ---------------------------------------------------------------------------

            1           2           3           4           5           6           7           8           9          10
 ........................................................................................................................
   1    9.998       8.936       7.860       6.774       5.676       4.567       3.446       2.312       1.166      1.5193E-03
   2    9.998       8.936       7.860       6.774       5.677       4.569       3.447       2.313       1.166      1.5196E-03
   3    9.998       8.936       7.861       6.776       5.681       4.574       3.450       2.315       1.166      1.5204E-03
   4    9.998       8.936       7.863       6.780       5.691       4.591       3.460       2.319       1.168      1.5223E-03
   5    9.998       8.937       7.865       6.788       5.716       4.656       3.486       2.327       1.170      1.5254E-03
   6    9.998       8.937       7.867       6.798       5.764       4.923       3.536       2.337       1.172      1.5280E-03
   7    9.998       8.937       7.865       6.788       5.716       4.656       3.486       2.327       1.170      1.5254E-03
   8    9.998       8.936       7.863       6.780       5.691       4.591       3.460       2.319       1.168      1.5223E-03
   9    9.998       8.936       7.861       6.776       5.681       4.574       3.451       2.315       1.166      1.5205E-03
  10    9.998       8.936       7.861       6.775       5.678       4.569       3.448       2.313       1.166      1.5197E-03
1
              HEAD IN LAYER   2 AT END OF TIME STEP  14 IN STRESS PERIOD    2
  ---------------------------------------------------------------------------

            1           2           3           4           5           6           7           8           9          10
 ........................................................................................................................
   1    9.998       8.934       7.858       6.772       5.675       4.566       3.444       2.310       1.164      2.4991E-03
   2    9.998       8.934       7.859       6.773       5.676       4.567       3.445       2.311       1.164      2.4997E-03
   3    9.998       8.934       7.860       6.775       5.680       4.573       3.450       2.313       1.165      2.5014E-03
   4    9.998       8.935       7.861       6.780       5.691       4.593       3.461       2.318       1.166      2.5049E-03
   5    9.998       8.936       7.864       6.789       5.719       4.661       3.489       2.327       1.169      2.5106E-03
   6    9.998       8.936       7.867       6.799       5.769       4.974       3.540       2.338       1.171      2.5153E-03
   7    9.998       8.936       7.864       6.789       5.719       4.661       3.489       2.327       1.169      2.5106E-03
   8    9.998       8.935       7.861       6.780       5.692       4.593       3.461       2.318       1.166      2.5049E-03
   9    9.998       8.934       7.860       6.775       5.680       4.573       3.450       2.313       1.165      2.5015E-03
  10    9.998       8.934       7.859       6.773       5.677       4.568       3.446       2.311       1.164      2.5001E-03
1
              HEAD IN LAYER   3 AT END OF TIME STEP  14 IN STRESS PERIOD    2
  ---------------------------------------------------------------------------

            1           2           3           4           5           6           7           8           9          10
 ........................................................................................................................
   1    9.998       8.932       7.857       6.771       5.673       4.564       3.443       2.309       1.162      2.5484E-03
   2    9.998       8.932       7.857       6.771       5.675       4.566       3.444       2.309       1.162      2.5492E-03
   3    9.998       8.933       7.858       6.774       5.679       4.573       3.449       2.312       1.163      2.5512E-03
   4    9.998       8.934       7.860       6.779       5.692       4.594       3.461       2.317       1.165      2.5553E-03
   5    9.998       8.934       7.864       6.790       5.722       4.660       3.491       2.328       1.168      2.5618E-03
   6    9.998       8.935       7.866       6.801       5.769       4.874       3.539       2.339       1.170      2.5671E-03
   7    9.998       8.934       7.864       6.790       5.722       4.660       3.491       2.328       1.168      2.5618E-03
   8    9.998       8.934       7.860       6.780       5.692       4.594       3.461       2.317       1.165      2.5553E-03
   9    9.998       8.933       7.858       6.774       5.680       4.573       3.449       2.312       1.163      2.5513E-03
  10    9.998       8.933       7.857       6.772       5.675       4.567       3.445       2.310       1.162      2.5496E-03
1
              HEAD IN LAYER   4 AT END OF TIME STEP  14 IN STRESS PERIOD    2
  ---------------------------------------------------------------------------

            1           2           3           4           5           6           7           8           9          10
 ........................................................................................................................
   1    9.998       8.931       7.856       6.770       5.672       4.563       3.441       2.307       1.161      2.5483E-03
   2    9.998       8.932       7.856       6.770       5.674       4.565       3.443       2.308       1.161      2.5491E-03
   3    9.998       8.932       7.857       6.773       5.679       4.572       3.448       2.311       1.162      2.5513E-03
   4    9.998       8.933       7.860       6.779       5.692       4.594       3.462       2.317       1.164      2.5558E-03
   5    9.998       8.934       7.863       6.790       5.723       4.658       3.492       2.328       1.168      2.5628E-03
   6    9.998       8.934       7.866       6.801       5.767       4.816       3.537       2.339       1.170      2.5684E-03
   7    9.998       8.934       7.863       6.790       5.723       4.658       3.492       2.328       1.168      2.5628E-03
   8    9.998       8.933       7.860       6.779       5.692       4.594       3.462       2.317       1.164      2.5558E-03
   9    9.998       8.932       7.858       6.773       5.679       4.573       3.448       2.311       1.162      2.5515E-03
  10    9.998       8.932       7.857       6.771       5.675       4.566       3.444       2.309       1.161      2.5496E-03
1
              HEAD IN LAYER   5 AT END OF TIME STEP  14 IN STRESS PERIOD    2
  ---------------------------------------------------------------------------

            1           2           3           4           5           6           7           8           9          10
 ........................................................................................................................
   1    9.998       8.931       7.855       6.769       5.672       4.562       3.441       2.307       1.160      2.5472E-03
   2    9.998       8.931       7.856       6.770       5.673       4.565       3.443       2.308       1.161      2.5481E-03
   3    9.998       8.932       7.857       6.773       5.679       4.572       3.448       2.311       1.162      2.5504E-03
   4    9.998       8.932       7.859       6.779       5.693       4.594       3.462       2.317       1.164      2.5550E-03
   5    9.998       8.933       7.863       6.790       5.723       4.657       3.493       2.328       1.167      2.5623E-03
   6    9.998       8.934       7.866       6.801       5.766       4.789       3.536       2.339       1.170      2.5680E-03
   7    9.998       8.933       7.863       6.790       5.723       4.657       3.493       2.328       1.167      2.5623E-03
   8    9.998       8.932       7.859       6.779       5.693       4.594       3.462       2.317       1.164      2.5551E-03
   9    9.998       8.932       7.857       6.773       5.679       4.572       3.448       2.311       1.162      2.5505E-03
  10    9.998       8.931       7.856       6.771       5.674       4.566       3.443       2.308       1.161      2.5486E-03

 HEAD WILL BE SAVED ON UNIT   51 AT END OF TIME STEP   14, STRESS PERIOD    2

 DRAWDOWN WILL BE SAVED ON UNIT   52 AT END OF TIME STEP   14, STRESS PERIOD    2
1
  VOLUMETRIC BUDGET FOR ENTIRE MODEL AT END OF TIME STEP   14, STRESS PERIOD   2
  ------------------------------------------------------------------------------

     CUMULATIVE VOLUMES      L**3       RATES FOR THIS TIME STEP      L**3/T
     ------------------                 ------------------------

           IN:                                      IN:
           ---                                      ---
             STORAGE =           0.0000               STORAGE =           0.0000
       CONSTANT HEAD =           0.0000         CONSTANT HEAD =           0.0000
               WELLS =        1400.0000                 WELLS =         100.0000
     HEAD DEP BOUNDS =       17482.1953       HEAD DEP BOUNDS =        1164.6469

            TOTAL IN =       18882.1953              TOTAL IN =        1264.6469

          OUT:                                     OUT:
          ----                                     ----
             STORAGE =        1372.8214               STORAGE =          95.3812
       CONSTANT HEAD =           0.0000         CONSTANT HEAD =           0.0000
               WELLS =           0.0000                 WELLS =           0.0000
     HEAD DEP BOUNDS =       17509.0293       HEAD DEP BOUNDS =        1169.2496

           TOTAL OUT =       18881.8516             TOTAL OUT =        1264.6309

            IN - OUT =           0.3438              IN - OUT =       1.5991E-02

 PERCENT DISCREPANCY =           0.00     PERCENT DISCREPANCY =           0.00






         TIME SUMMARY AT END OF TIME STEP   14 IN STRESS PERIOD    2
                    SECONDS     MINUTES      HOURS       DAYS        YEARS
                    -----------------------------------------------------------
   TIME STEP LENGTH  86400.      1440.0      24.000      1.0000     2.73785E-03
 STRESS PERIOD TIME 1.20960E+06  20160.      336.00      14.000     3.83299E-02
         TOTAL TIME 1.29600E+06  21600.      360.00      15.000     4.10678E-02
1
 
 SOLVING FOR HEAD 

 OUTPUT CONTROL FOR STRESS PERIOD    2   TIME STEP   15
    SAVE HEAD FOR ALL LAYERS
    SAVE DRAWDOWN FOR ALL LAYERS
    SAVE BUDGET
    PRINT HEAD FOR ALL LAYERS
    PRINT BUDGET
 UBDSV1 SAVING "         STORAGE" ON UNIT  53 AT TIME STEP 15, STRESS PERIOD   2
 UBDSV2 SAVING "   CONSTANT HEAD" ON UNIT  53 AT TIME STEP 15, STRESS PERIOD   2
 UBDSV1 SAVING "FLOW RIGHT FACE " ON UNIT  53 AT TIME STEP 15, STRESS PERIOD   2
 UBDSV1 SAVING "FLOW FRONT FACE " ON UNIT  53 AT TIME STEP 15, STRESS PERIOD   2
 UBDSV1 SAVING "FLOW LOWER FACE " ON UNIT  53 AT TIME STEP 15, STRESS PERIOD   2

 SAVING SATURATED THICKNESS AND FLOW TERMS ON UNIT   54 FOR MT3DMS
 BY THE LINK-MT3DMS PACKAGE V7 AT TIME STEP   15, STRESS PERIOD    2

1
              HEAD IN LAYER   1 AT END OF TIME STEP  15 IN STRESS PERIOD    2
  ---------------------------------------------------------------------------

            1           2           3           4           5           6           7           8           9          10
 ........................................................................................................................
   1    9.998       8.936       7.860       6.774       5.677       4.567       3.446       2.312       1.166      1.5193E-03
   2    9.998       8.936       7.861       6.775       5.678       4.569       3.447       2.313       1.166      1.5197E-03
   3    9.998       8.936       7.861       6.777       5.682       4.575       3.451       2.315       1.167      1.5207E-03
   4    9.998       8.936       7.863       6.781       5.692       4.593       3.462       2.320       1.168      1.5228E-03
   5    9.998       8.937       7.866       6.790       5.719       4.661       3.490       2.329       1.171      1.5262E-03
   6    9.998       8.938       7.868       6.800       5.769       4.931       3.541       2.339       1.173      1.5290E-03
   7    9.998       8.937       7.866       6.790       5.719       4.661       3.490       2.329       1.171      1.5262E-03
   8    9.998       8.936       7.863       6.781       5.693       4.593       3.462       2.320       1.168      1.5228E-03
   9    9.998       8.936       7.861       6.777       5.682       4.575       3.451       2.315       1.167      1.5207E-03
  10    9.998       8.936       7.861       6.775       5.678       4.570       3.448       2.313       1.166      1.5199E-03
1
              HEAD IN LAYER   2 AT END OF TIME STEP  15 IN STRESS PERIOD    2
  ---------------------------------------------------------------------------

            1           2           3           4           5           6           7           8           9          10
 ........................................................................................................................
   1    9.998       8.934       7.858       6.772       5.675       4.566       3.444       2.310       1.164      2.4992E-03
   2    9.998       8.934       7.859       6.773       5.676       4.568       3.446       2.311       1.164      2.4999E-03
   3    9.998       8.934       7.860       6.775       5.681       4.574       3.450       2.314       1.165      2.5018E-03
   4    9.998       8.935       7.862       6.781       5.693       4.595       3.463       2.319       1.167      2.5057E-03
   5    9.998       8.936       7.865       6.791       5.723       4.666       3.492       2.329       1.170      2.5120E-03
   6    9.998       8.936       7.868       6.802       5.774       4.981       3.545       2.340       1.172      2.5170E-03
   7    9.998       8.936       7.865       6.791       5.723       4.666       3.492       2.329       1.170      2.5120E-03
   8    9.998       8.935       7.862       6.781       5.693       4.595       3.463       2.319       1.167      2.5058E-03
   9    9.998       8.934       7.860       6.776       5.681       4.574       3.451       2.314       1.165      2.5020E-03
  10    9.998       8.934       7.859       6.773       5.677       4.568       3.446       2.312       1.164      2.5003E-03
1
              HEAD IN LAYER   3 AT END OF TIME STEP  15 IN STRESS PERIOD    2
  ---------------------------------------------------------------------------

            1           2           3           4           5           6           7           8           9          10
 ........................................................................................................................
   1    9.998       8.932       7.857       6.771       5.673       4.564       3.443       2.309       1.162      2.5486E-03
   2    9.998       8.933       7.857       6.772       5.675       4.566       3.444       2.310       1.162      2.5494E-03
   3    9.998       8.933       7.859       6.774       5.680       4.574       3.450       2.312       1.163      2.5516E-03
   4    9.998       8.934       7.861       6.781       5.694       4.596       3.463       2.318       1.165      2.5562E-03
   5    9.998       8.935       7.864       6.792       5.725       4.665       3.494       2.329       1.169      2.5633E-03
   6    9.998       8.935       7.867       6.803       5.774       4.880       3.544       2.341       1.171      2.5689E-03
   7    9.998       8.935       7.864       6.792       5.725       4.665       3.494       2.329       1.169      2.5633E-03
   8    9.998       8.934       7.861       6.781       5.694       4.596       3.463       2.318       1.166      2.5563E-03
   9    9.998       8.933       7.859       6.775       5.680       4.574       3.450       2.312       1.163      2.5518E-03
  10    9.998       8.933       7.858       6.772       5.676       4.567       3.445       2.310       1.163      2.5499E-03
1
              HEAD IN LAYER   4 AT END OF TIME STEP  15 IN STRESS PERIOD    2
  ---------------------------------------------------------------------------

            1           2           3           4           5           6           7           8           9          10
 ........................................................................................................................
   1    9.998       8.932       7.856       6.770       5.672       4.563       3.442       2.308       1.161      2.5484E-03
   2    9.998       8.932       7.856       6.771       5.674       4.566       3.443       2.309       1.161      2.5493E-03
   3    9.998       8.932       7.858       6.774       5.680       4.573       3.449       2.311       1.162      2.5518E-03
   4    9.998       8.933       7.860       6.780       5.694       4.596       3.463       2.318       1.165      2.5567E-03
   5    9.998       8.934       7.864       6.792       5.726       4.662       3.495       2.330       1.168      2.5643E-03
   6    9.998       8.935       7.867       6.803       5.771       4.822       3.541       2.341       1.171      2.5702E-03
   7    9.998       8.934       7.864       6.792       5.726       4.662       3.495       2.330       1.168      2.5644E-03
   8    9.998       8.933       7.860       6.780       5.694       4.596       3.464       2.318       1.165      2.5568E-03
   9    9.998       8.932       7.858       6.774       5.680       4.574       3.449       2.312       1.163      2.5520E-03
  10    9.998       8.932       7.857       6.771       5.675       4.567       3.444       2.309       1.162      2.5499E-03
1
              HEAD IN LAYER   5 AT END OF TIME STEP  15 IN STRESS PERIOD    2
  ---------------------------------------------------------------------------

            1           2           3           4           5           6           7           8           9          10
 ........................................................................................................................
   1    9.998       8.931       7.855       6.769       5.672       4.563       3.441       2.307       1.160      2.5473E-03
   2    9.998       8.931       7.856       6.770       5.674       4.565       3.443       2.308       1.161      2.5483E-03
   3    9.998       8.932       7.857       6.773       5.680       4.573       3.449       2.311       1.162      2.5509E-03
   4    9.998       8.933       7.860       6.780       5.694       4.596       3.464       2.318       1.164      2.5560E-03
   5    9.998       8.934       7.864       6.792       5.726       4.661       3.496       2.330       1.168      2.5639E-03
   6    9.998       8.934       7.867       6.804       5.770       4.795       3.540       2.341       1.171      2.5699E-03
   7    9.998       8.934       7.864       6.792       5.726       4.661       3.496       2.330       1.168      2.5639E-03
   8    9.998       8.933       7.860       6.780       5.694       4.597       3.464       2.318       1.164      2.5561E-03
   9    9.998       8.932       7.857       6.774       5.680       4.573       3.449       2.311       1.162      2.5511E-03
  10    9.998       8.931       7.856       6.771       5.675       4.566       3.444       2.309       1.161      2.5489E-03

 HEAD WILL BE SAVED ON UNIT   51 AT END OF TIME STEP   15, STRESS PERIOD    2

 DRAWDOWN WILL BE SAVED ON UNIT   52 AT END OF TIME STEP   15, STRESS PERIOD    2
1
  VOLUMETRIC BUDGET FOR ENTIRE MODEL AT END OF TIME STEP   15, STRESS PERIOD   2
  ------------------------------------------------------------------------------

     CUMULATIVE VOLUMES      L**3       RATES FOR THIS TIME STEP      L**3/T
     ------------------                 ------------------------

           IN:                                      IN:
           ---                                      ---
             STORAGE =           0.0000               STORAGE =           0.0000
       CONSTANT HEAD =           0.0000         CONSTANT HEAD =           0.0000
               WELLS =        1500.0000                 WELLS =         100.0000
     HEAD DEP BOUNDS =       18646.6660       HEAD DEP BOUNDS =        1164.4713

            TOTAL IN =       20146.6660              TOTAL IN =        1264.4713

          OUT:                                     OUT:
          ----                                     ----
             STORAGE =        1467.6555               STORAGE =          94.8341
       CONSTANT HEAD =           0.0000         CONSTANT HEAD =           0.0000
               WELLS =           0.0000                 WELLS =           0.0000
     HEAD DEP BOUNDS =       18678.6562       HEAD DEP BOUNDS =        1169.6261

           TOTAL OUT =       20146.3125             TOTAL OUT =        1264.4602

            IN - OUT =           0.3535              IN - OUT =       1.1108E-02

 PERCENT DISCREPANCY =           0.00     PERCENT DISCREPANCY =           0.00






         TIME SUMMARY AT END OF TIME STEP   15 IN STRESS PERIOD    2
                    SECONDS     MINUTES      HOURS       DAYS        YEARS
                    -----------------------------------------------------------
   TIME STEP LENGTH  86400.      1440.0      24.000      1.0000     2.73785E-03
 STRESS PERIOD TIME 1.29600E+06  21600.      360.00      15.000     4.10678E-02
         TOTAL TIME 1.38240E+06  23040.      384.00      16.000     4.38056E-02
1
 
 SOLVING FOR HEAD 

 OUTPUT CONTROL FOR STRESS PERIOD    2   TIME STEP   16
    SAVE HEAD FOR ALL LAYERS
    SAVE DRAWDOWN FOR ALL LAYERS
    SAVE BUDGET
    PRINT HEAD FOR ALL LAYERS
    PRINT BUDGET
 UBDSV1 SAVING "         STORAGE" ON UNIT  53 AT TIME STEP 16, STRESS PERIOD   2
 UBDSV2 SAVING "   CONSTANT HEAD" ON UNIT  53 AT TIME STEP 16, STRESS PERIOD   2
 UBDSV1 SAVING "FLOW RIGHT FACE " ON UNIT  53 AT TIME STEP 16, STRESS PERIOD   2
 UBDSV1 SAVING "FLOW FRONT FACE " ON UNIT  53 AT TIME STEP 16, STRESS PERIOD   2
 UBDSV1 SAVING "FLOW LOWER FACE " ON UNIT  53 AT TIME STEP 16, STRESS PERIOD   2

 SAVING SATURATED THICKNESS AND FLOW TERMS ON UNIT   54 FOR MT3DMS
 BY THE LINK-MT3DMS PACKAGE V7 AT TIME STEP   16, STRESS PERIOD    2

1
              HEAD IN LAYER   1 AT END OF TIME STEP  16 IN STRESS PERIOD    2
  ---------------------------------------------------------------------------

            1           2           3           4           5           6           7           8           9          10
 ........................................................................................................................
   1    9.998       8.936       7.860       6.774       5.677       4.568       3.446       2.312       1.166      1.5194E-03
   2    9.998       8.936       7.861       6.775       5.678       4.569       3.448       2.313       1.166      1.5198E-03
   3    9.998       8.936       7.862       6.777       5.682       4.576       3.452       2.315       1.167      1.5210E-03
   4    9.998       8.937       7.864       6.782       5.694       4.596       3.464       2.320       1.169      1.5233E-03
   5    9.998       8.937       7.867       6.792       5.723       4.666       3.493       2.330       1.171      1.5270E-03
   6    9.998       8.938       7.869       6.802       5.774       4.939       3.546       2.341       1.174      1.5301E-03
   7    9.998       8.937       7.867       6.792       5.723       4.666       3.493       2.330       1.171      1.5270E-03
   8    9.998       8.937       7.864       6.782       5.694       4.596       3.464       2.321       1.169      1.5234E-03
   9    9.998       8.936       7.862       6.777       5.683       4.576       3.452       2.315       1.167      1.5211E-03
  10    9.998       8.936       7.861       6.775       5.679       4.570       3.448       2.314       1.166      1.5201E-03
1
              HEAD IN LAYER   2 AT END OF TIME STEP  16 IN STRESS PERIOD    2
  ---------------------------------------------------------------------------

            1           2           3           4           5           6           7           8           9          10
 ........................................................................................................................
   1    9.998       8.934       7.858       6.772       5.675       4.566       3.444       2.311       1.164      2.4993E-03
   2    9.998       8.934       7.859       6.773       5.677       4.568       3.446       2.311       1.164      2.5001E-03
   3    9.998       8.934       7.860       6.776       5.682       4.575       3.451       2.314       1.165      2.5023E-03
   4    9.998       8.935       7.862       6.782       5.695       4.597       3.464       2.320       1.167      2.5066E-03
   5    9.998       8.936       7.866       6.793       5.726       4.670       3.496       2.331       1.170      2.5134E-03
   6    9.998       8.937       7.868       6.804       5.779       4.988       3.550       2.342       1.173      2.5188E-03
   7    9.998       8.936       7.866       6.793       5.726       4.670       3.496       2.331       1.170      2.5134E-03
   8    9.998       8.935       7.862       6.782       5.695       4.597       3.464       2.320       1.167      2.5067E-03
   9    9.998       8.934       7.860       6.776       5.682       4.575       3.451       2.314       1.165      2.5024E-03
  10    9.998       8.934       7.859       6.774       5.677       4.569       3.447       2.312       1.164      2.5006E-03
1
              HEAD IN LAYER   3 AT END OF TIME STEP  16 IN STRESS PERIOD    2
  ---------------------------------------------------------------------------

            1           2           3           4           5           6           7           8           9          10
 ........................................................................................................................
   1    9.998       8.932       7.857       6.771       5.674       4.564       3.443       2.309       1.162      2.5487E-03
   2    9.998       8.933       7.857       6.772       5.675       4.567       3.445       2.310       1.163      2.5496E-03
   3    9.998       8.933       7.859       6.775       5.681       4.575       3.450       2.313       1.164      2.5521E-03
   4    9.998       8.934       7.861       6.782       5.696       4.598       3.465       2.319       1.166      2.5572E-03
   5    9.998       8.935       7.865       6.793       5.728       4.669       3.498       2.331       1.169      2.5648E-03
   6    9.998       8.936       7.868       6.805       5.778       4.886       3.548       2.343       1.172      2.5708E-03
   7    9.998       8.935       7.865       6.793       5.728       4.669       3.498       2.331       1.169      2.5648E-03
   8    9.998       8.934       7.861       6.782       5.696       4.598       3.465       2.319       1.166      2.5572E-03
   9    9.998       8.933       7.859       6.775       5.681       4.575       3.451       2.313       1.164      2.5524E-03
  10    9.998       8.933       7.858       6.773       5.676       4.568       3.446       2.310       1.163      2.5502E-03
1
              HEAD IN LAYER   4 AT END OF TIME STEP  16 IN STRESS PERIOD    2
  ---------------------------------------------------------------------------

            1           2           3           4           5           6           7           8           9          10
 ........................................................................................................................
   1    9.998       8.932       7.856       6.770       5.673       4.563       3.442       2.308       1.161      2.5486E-03
   2    9.998       8.932       7.857       6.771       5.675       4.566       3.444       2.309       1.161      2.5496E-03
   3    9.998       8.932       7.858       6.774       5.681       4.574       3.450       2.312       1.163      2.5523E-03
   4    9.998       8.933       7.861       6.781       5.696       4.598       3.465       2.319       1.165      2.5577E-03
   5    9.998       8.934       7.865       6.794       5.729       4.666       3.498       2.331       1.169      2.5659E-03
   6    9.998       8.935       7.868       6.805       5.775       4.827       3.545       2.343       1.172      2.5721E-03
   7    9.998       8.934       7.865       6.794       5.729       4.666       3.498       2.331       1.169      2.5659E-03
   8    9.998       8.933       7.861       6.781       5.696       4.599       3.465       2.319       1.165      2.5578E-03
   9    9.998       8.932       7.858       6.775       5.681       4.575       3.450       2.312       1.163      2.5525E-03
  10    9.998       8.932       7.857       6.772       5.676       4.567       3.445       2.310       1.162      2.5503E-03
1
              HEAD IN LAYER   5 AT END OF TIME STEP  16 IN STRESS PERIOD    2
  ---------------------------------------------------------------------------

            1           2           3           4           5           6           7           8           9          10
 ........................................................................................................................
   1    9.998       8.931       7.856       6.769       5.672       4.563       3.441       2.307       1.160      2.5475E-03
   2    9.998       8.931       7.856       6.771       5.674       4.566       3.443       2.308       1.161      2.5486E-03
   3    9.998       8.932       7.858       6.774       5.680       4.574       3.450       2.312       1.162      2.5514E-03
   4    9.998       8.933       7.861       6.781       5.696       4.599       3.465       2.319       1.165      2.5570E-03
   5    9.998       8.934       7.865       6.794       5.729       4.665       3.499       2.331       1.169      2.5655E-03
   6    9.998       8.935       7.868       6.806       5.774       4.800       3.544       2.343       1.172      2.5718E-03
   7    9.998       8.934       7.865       6.794       5.729       4.665       3.499       2.331       1.169      2.5655E-03
   8    9.998       8.933       7.861       6.781       5.696       4.599       3.465       2.319       1.165      2.5571E-03
   9    9.998       8.932       7.858       6.774       5.681       4.575       3.450       2.312       1.162      2.5517E-03
  10    9.998       8.932       7.857       6.771       5.675       4.567       3.445       2.309       1.161      2.5493E-03

 HEAD WILL BE SAVED ON UNIT   51 AT END OF TIME STEP   16, STRESS PERIOD    2

 DRAWDOWN WILL BE SAVED ON UNIT   52 AT END OF TIME STEP   16, STRESS PERIOD    2
1
  VOLUMETRIC BUDGET FOR ENTIRE MODEL AT END OF TIME STEP   16, STRESS PERIOD   2
  ------------------------------------------------------------------------------

     CUMULATIVE VOLUMES      L**3       RATES FOR THIS TIME STEP      L**3/T
     ------------------                 ------------------------

           IN:                                      IN:
           ---                                      ---
             STORAGE =           0.0000               STORAGE =           0.0000
       CONSTANT HEAD =           0.0000         CONSTANT HEAD =           0.0000
               WELLS =        1600.0000                 WELLS =         100.0000
     HEAD DEP BOUNDS =       19810.9375       HEAD DEP BOUNDS =        1164.2710

            TOTAL IN =       21410.9375              TOTAL IN =        1264.2710

          OUT:                                     OUT:
          ----                                     ----
             STORAGE =        1561.9028               STORAGE =          94.2473
       CONSTANT HEAD =           0.0000         CONSTANT HEAD =           0.0000
               WELLS =           0.0000                 WELLS =           0.0000
     HEAD DEP BOUNDS =       19848.6738       HEAD DEP BOUNDS =        1170.0182

           TOTAL OUT =       21410.5762             TOTAL OUT =        1264.2655

            IN - OUT =           0.3613              IN - OUT =       5.4932E-03

 PERCENT DISCREPANCY =           0.00     PERCENT DISCREPANCY =           0.00






         TIME SUMMARY AT END OF TIME STEP   16 IN STRESS PERIOD    2
                    SECONDS     MINUTES      HOURS       DAYS        YEARS
                    -----------------------------------------------------------
   TIME STEP LENGTH  86400.      1440.0      24.000      1.0000     2.73785E-03
 STRESS PERIOD TIME 1.38240E+06  23040.      384.00      16.000     4.38056E-02
         TOTAL TIME 1.46880E+06  24480.      408.00      17.000     4.65435E-02
1
 
 SOLVING FOR HEAD 

 OUTPUT CONTROL FOR STRESS PERIOD    2   TIME STEP   17
    SAVE HEAD FOR ALL LAYERS
    SAVE DRAWDOWN FOR ALL LAYERS
    SAVE BUDGET
    PRINT HEAD FOR ALL LAYERS
    PRINT BUDGET
 UBDSV1 SAVING "         STORAGE" ON UNIT  53 AT TIME STEP 17, STRESS PERIOD   2
 UBDSV2 SAVING "   CONSTANT HEAD" ON UNIT  53 AT TIME STEP 17, STRESS PERIOD   2
 UBDSV1 SAVING "FLOW RIGHT FACE " ON UNIT  53 AT TIME STEP 17, STRESS PERIOD   2
 UBDSV1 SAVING "FLOW FRONT FACE " ON UNIT  53 AT TIME STEP 17, STRESS PERIOD   2
 UBDSV1 SAVING "FLOW LOWER FACE " ON UNIT  53 AT TIME STEP 17, STRESS PERIOD   2

 SAVING SATURATED THICKNESS AND FLOW TERMS ON UNIT   54 FOR MT3DMS
 BY THE LINK-MT3DMS PACKAGE V7 AT TIME STEP   17, STRESS PERIOD    2

1
              HEAD IN LAYER   1 AT END OF TIME STEP  17 IN STRESS PERIOD    2
  ---------------------------------------------------------------------------

            1           2           3           4           5           6           7           8           9          10
 ........................................................................................................................
   1    9.998       8.936       7.860       6.774       5.677       4.568       3.446       2.313       1.166      1.5194E-03
   2    9.998       8.936       7.861       6.775       5.678       4.570       3.448       2.313       1.166      1.5200E-03
   3    9.998       8.936       7.862       6.778       5.683       4.576       3.453       2.316       1.167      1.5212E-03
   4    9.998       8.937       7.864       6.783       5.696       4.598       3.466       2.321       1.169      1.5238E-03
   5    9.998       8.938       7.867       6.793       5.726       4.671       3.496       2.332       1.172      1.5279E-03
   6    9.998       8.938       7.870       6.804       5.779       4.946       3.551       2.343       1.174      1.5312E-03
   7    9.998       8.938       7.867       6.794       5.726       4.671       3.496       2.332       1.172      1.5279E-03
   8    9.998       8.937       7.864       6.783       5.696       4.598       3.466       2.322       1.169      1.5239E-03
   9    9.998       8.936       7.862       6.778       5.683       4.577       3.453       2.316       1.167      1.5213E-03
  10    9.998       8.936       7.861       6.776       5.679       4.571       3.449       2.314       1.166      1.5202E-03
1
              HEAD IN LAYER   2 AT END OF TIME STEP  17 IN STRESS PERIOD    2
  ---------------------------------------------------------------------------

            1           2           3           4           5           6           7           8           9          10
 ........................................................................................................................
   1    9.998       8.934       7.859       6.772       5.675       4.566       3.445       2.311       1.164      2.4995E-03
   2    9.998       8.934       7.859       6.773       5.677       4.568       3.446       2.312       1.164      2.5004E-03
   3    9.998       8.934       7.860       6.776       5.682       4.576       3.452       2.315       1.165      2.5027E-03
   4    9.998       8.935       7.863       6.783       5.697       4.599       3.466       2.321       1.168      2.5075E-03
   5    9.998       8.936       7.867       6.794       5.729       4.674       3.499       2.332       1.171      2.5149E-03
   6    9.998       8.937       7.869       6.806       5.783       4.995       3.554       2.344       1.174      2.5206E-03
   7    9.998       8.936       7.867       6.794       5.729       4.675       3.499       2.332       1.171      2.5149E-03
   8    9.998       8.935       7.863       6.783       5.697       4.599       3.466       2.321       1.168      2.5076E-03
   9    9.998       8.935       7.860       6.777       5.683       4.576       3.452       2.315       1.165      2.5029E-03
  10    9.998       8.934       7.859       6.774       5.678       4.570       3.447       2.312       1.164      2.5009E-03
1
              HEAD IN LAYER   3 AT END OF TIME STEP  17 IN STRESS PERIOD    2
  ---------------------------------------------------------------------------

            1           2           3           4           5           6           7           8           9          10
 ........................................................................................................................
   1    9.998       8.932       7.857       6.771       5.674       4.565       3.443       2.309       1.162      2.5488E-03
   2    9.998       8.933       7.858       6.772       5.676       4.567       3.445       2.310       1.163      2.5499E-03
   3    9.998       8.933       7.859       6.775       5.682       4.576       3.451       2.313       1.164      2.5527E-03
   4    9.998       8.934       7.862       6.783       5.697       4.600       3.467       2.320       1.166      2.5581E-03
   5    9.998       8.935       7.866       6.795       5.731       4.673       3.501       2.333       1.170      2.5664E-03
   6    9.998       8.936       7.869       6.807       5.782       4.892       3.552       2.345       1.173      2.5727E-03
   7    9.998       8.935       7.866       6.795       5.731       4.673       3.501       2.333       1.170      2.5664E-03
   8    9.998       8.934       7.862       6.783       5.697       4.600       3.467       2.320       1.166      2.5582E-03
   9    9.998       8.933       7.859       6.776       5.682       4.576       3.452       2.314       1.164      2.5529E-03
  10    9.998       8.933       7.858       6.773       5.677       4.569       3.446       2.311       1.163      2.5506E-03
1
              HEAD IN LAYER   4 AT END OF TIME STEP  17 IN STRESS PERIOD    2
  ---------------------------------------------------------------------------

            1           2           3           4           5           6           7           8           9          10
 ........................................................................................................................
   1    9.998       8.932       7.856       6.770       5.673       4.564       3.442       2.308       1.161      2.5487E-03
   2    9.998       8.932       7.857       6.771       5.675       4.566       3.444       2.309       1.162      2.5499E-03
   3    9.998       8.932       7.858       6.775       5.681       4.575       3.451       2.313       1.163      2.5529E-03
   4    9.998       8.933       7.861       6.782       5.698       4.601       3.467       2.320       1.166      2.5588E-03
   5    9.998       8.935       7.866       6.795       5.732       4.670       3.501       2.333       1.170      2.5675E-03
   6    9.998       8.936       7.869       6.808       5.779       4.832       3.549       2.345       1.173      2.5740E-03
   7    9.998       8.935       7.866       6.795       5.732       4.670       3.501       2.333       1.170      2.5675E-03
   8    9.998       8.933       7.861       6.783       5.698       4.601       3.467       2.320       1.166      2.5589E-03
   9    9.998       8.932       7.859       6.775       5.682       4.576       3.451       2.313       1.163      2.5531E-03
  10    9.998       8.932       7.857       6.772       5.676       4.568       3.445       2.310       1.162      2.5506E-03
1
              HEAD IN LAYER   5 AT END OF TIME STEP  17 IN STRESS PERIOD    2
  ---------------------------------------------------------------------------

            1           2           3           4           5           6           7           8           9          10
 ........................................................................................................................
   1    9.998       8.931       7.856       6.770       5.672       4.563       3.442       2.307       1.161      2.5477E-03
   2    9.998       8.931       7.856       6.771       5.675       4.566       3.444       2.309       1.161      2.5489E-03
   3    9.998       8.932       7.858       6.775       5.681       4.575       3.451       2.312       1.163      2.5520E-03
   4    9.998       8.933       7.861       6.782       5.698       4.601       3.467       2.320       1.165      2.5581E-03
   5    9.998       8.934       7.866       6.796       5.732       4.668       3.502       2.333       1.169      2.5671E-03
   6    9.998       8.935       7.869       6.808       5.777       4.805       3.547       2.346       1.172      2.5737E-03
   7    9.998       8.934       7.866       6.796       5.732       4.669       3.502       2.333       1.169      2.5671E-03
   8    9.998       8.933       7.861       6.782       5.698       4.601       3.467       2.320       1.165      2.5582E-03
   9    9.998       8.932       7.858       6.775       5.682       4.576       3.451       2.312       1.163      2.5523E-03
  10    9.998       8.932       7.857       6.772       5.676       4.568       3.445       2.309       1.161      2.5497E-03

 HEAD WILL BE SAVED ON UNIT   51 AT END OF TIME STEP   17, STRESS PERIOD    2

 DRAWDOWN WILL BE SAVED ON UNIT   52 AT END OF TIME STEP   17, STRESS PERIOD    2
1
  VOLUMETRIC BUDGET FOR ENTIRE MODEL AT END OF TIME STEP   17, STRESS PERIOD   2
  ------------------------------------------------------------------------------

     CUMULATIVE VOLUMES      L**3       RATES FOR THIS TIME STEP      L**3/T
     ------------------                 ------------------------

           IN:                                      IN:
           ---                                      ---
             STORAGE =           0.0000               STORAGE =           0.0000
       CONSTANT HEAD =           0.0000         CONSTANT HEAD =           0.0000
               WELLS =        1700.0000                 WELLS =         100.0000
     HEAD DEP BOUNDS =       20975.0117       HEAD DEP BOUNDS =        1164.0747

            TOTAL IN =       22675.0117              TOTAL IN =        1264.0747

          OUT:                                     OUT:
          ----                                     ----
             STORAGE =        1655.5530               STORAGE =          93.6501
       CONSTANT HEAD =           0.0000         CONSTANT HEAD =           0.0000
               WELLS =           0.0000                 WELLS =           0.0000
     HEAD DEP BOUNDS =       21019.0957       HEAD DEP BOUNDS =        1170.4210

           TOTAL OUT =       22674.6484             TOTAL OUT =        1264.0712

            IN - OUT =           0.3633              IN - OUT =       3.5400E-03

 PERCENT DISCREPANCY =           0.00     PERCENT DISCREPANCY =           0.00






         TIME SUMMARY AT END OF TIME STEP   17 IN STRESS PERIOD    2
                    SECONDS     MINUTES      HOURS       DAYS        YEARS
                    -----------------------------------------------------------
   TIME STEP LENGTH  86400.      1440.0      24.000      1.0000     2.73785E-03
 STRESS PERIOD TIME 1.46880E+06  24480.      408.00      17.000     4.65435E-02
         TOTAL TIME 1.55520E+06  25920.      432.00      18.000     4.92813E-02
1
 
 SOLVING FOR HEAD 

 OUTPUT CONTROL FOR STRESS PERIOD    2   TIME STEP   18
    SAVE HEAD FOR ALL LAYERS
    SAVE DRAWDOWN FOR ALL LAYERS
    SAVE BUDGET
    PRINT HEAD FOR ALL LAYERS
    PRINT BUDGET
 UBDSV1 SAVING "         STORAGE" ON UNIT  53 AT TIME STEP 18, STRESS PERIOD   2
 UBDSV2 SAVING "   CONSTANT HEAD" ON UNIT  53 AT TIME STEP 18, STRESS PERIOD   2
 UBDSV1 SAVING "FLOW RIGHT FACE " ON UNIT  53 AT TIME STEP 18, STRESS PERIOD   2
 UBDSV1 SAVING "FLOW FRONT FACE " ON UNIT  53 AT TIME STEP 18, STRESS PERIOD   2
 UBDSV1 SAVING "FLOW LOWER FACE " ON UNIT  53 AT TIME STEP 18, STRESS PERIOD   2

 SAVING SATURATED THICKNESS AND FLOW TERMS ON UNIT   54 FOR MT3DMS
 BY THE LINK-MT3DMS PACKAGE V7 AT TIME STEP   18, STRESS PERIOD    2

1
              HEAD IN LAYER   1 AT END OF TIME STEP  18 IN STRESS PERIOD    2
  ---------------------------------------------------------------------------

            1           2           3           4           5           6           7           8           9          10
 ........................................................................................................................
   1    9.998       8.936       7.860       6.774       5.677       4.568       3.447       2.313       1.166      1.5195E-03
   2    9.998       8.936       7.861       6.775       5.679       4.570       3.448       2.314       1.166      1.5201E-03
   3    9.998       8.936       7.862       6.778       5.684       4.577       3.454       2.316       1.167      1.5215E-03
   4    9.998       8.937       7.865       6.784       5.698       4.600       3.467       2.322       1.169      1.5244E-03
   5    9.998       8.938       7.868       6.795       5.729       4.675       3.499       2.334       1.173      1.5288E-03
   6    9.998       8.939       7.871       6.807       5.783       4.953       3.555       2.345       1.175      1.5324E-03
   7    9.998       8.938       7.868       6.795       5.729       4.675       3.499       2.334       1.173      1.5288E-03
   8    9.998       8.937       7.865       6.784       5.698       4.600       3.467       2.323       1.169      1.5245E-03
   9    9.998       8.936       7.862       6.778       5.684       4.578       3.454       2.316       1.167      1.5216E-03
  10    9.998       8.936       7.861       6.776       5.680       4.571       3.449       2.314       1.166      1.5204E-03
1
              HEAD IN LAYER   2 AT END OF TIME STEP  18 IN STRESS PERIOD    2
  ---------------------------------------------------------------------------

            1           2           3           4           5           6           7           8           9          10
 ........................................................................................................................
   1    9.998       8.934       7.859       6.773       5.675       4.566       3.445       2.311       1.164      2.4996E-03
   2    9.998       8.934       7.859       6.774       5.677       4.569       3.447       2.312       1.164      2.5006E-03
   3    9.998       8.935       7.861       6.777       5.683       4.577       3.453       2.315       1.166      2.5032E-03
   4    9.998       8.935       7.863       6.784       5.698       4.601       3.468       2.322       1.168      2.5085E-03
   5    9.998       8.937       7.867       6.796       5.732       4.679       3.502       2.334       1.172      2.5164E-03
   6    9.998       8.937       7.870       6.808       5.787       5.000       3.558       2.347       1.175      2.5225E-03
   7    9.998       8.937       7.867       6.796       5.732       4.679       3.502       2.334       1.172      2.5164E-03
   8    9.998       8.936       7.863       6.784       5.699       4.602       3.468       2.322       1.168      2.5086E-03
   9    9.998       8.935       7.861       6.777       5.684       4.577       3.453       2.315       1.166      2.5035E-03
  10    9.998       8.934       7.860       6.774       5.678       4.570       3.448       2.313       1.165      2.5013E-03
1
              HEAD IN LAYER   3 AT END OF TIME STEP  18 IN STRESS PERIOD    2
  ---------------------------------------------------------------------------

            1           2           3           4           5           6           7           8           9          10
 ........................................................................................................................
   1    9.998       8.933       7.857       6.771       5.674       4.565       3.443       2.309       1.162      2.5490E-03
   2    9.998       8.933       7.858       6.772       5.676       4.568       3.446       2.310       1.163      2.5502E-03
   3    9.998       8.933       7.859       6.776       5.683       4.577       3.452       2.314       1.164      2.5532E-03
   4    9.998       8.934       7.863       6.784       5.699       4.602       3.468       2.321       1.167      2.5592E-03
   5    9.998       8.936       7.867       6.797       5.734       4.677       3.504       2.335       1.171      2.5680E-03
   6    9.998       8.936       7.870       6.809       5.786       4.897       3.556       2.347       1.174      2.5746E-03
   7    9.998       8.936       7.867       6.797       5.734       4.677       3.504       2.335       1.171      2.5680E-03
   8    9.998       8.934       7.863       6.784       5.699       4.602       3.469       2.322       1.167      2.5593E-03
   9    9.998       8.933       7.860       6.776       5.683       4.577       3.452       2.314       1.164      2.5535E-03
  10    9.998       8.933       7.858       6.773       5.677       4.569       3.447       2.311       1.163      2.5510E-03
1
              HEAD IN LAYER   4 AT END OF TIME STEP  18 IN STRESS PERIOD    2
  ---------------------------------------------------------------------------

            1           2           3           4           5           6           7           8           9          10
 ........................................................................................................................
   1    9.998       8.932       7.856       6.770       5.673       4.564       3.442       2.308       1.161      2.5489E-03
   2    9.998       8.932       7.857       6.772       5.675       4.567       3.445       2.309       1.162      2.5502E-03
   3    9.998       8.933       7.859       6.775       5.682       4.576       3.452       2.313       1.163      2.5534E-03
   4    9.998       8.934       7.862       6.784       5.699       4.603       3.469       2.321       1.166      2.5598E-03
   5    9.998       8.935       7.867       6.797       5.735       4.674       3.504       2.335       1.170      2.5691E-03
   6    9.998       8.936       7.870       6.810       5.783       4.837       3.553       2.348       1.174      2.5760E-03
   7    9.998       8.935       7.867       6.797       5.735       4.674       3.504       2.335       1.170      2.5691E-03
   8    9.998       8.934       7.862       6.784       5.700       4.603       3.469       2.321       1.166      2.5599E-03
   9    9.998       8.933       7.859       6.776       5.683       4.577       3.452       2.313       1.163      2.5538E-03
  10    9.998       8.932       7.857       6.773       5.677       4.569       3.446       2.310       1.162      2.5510E-03
1
              HEAD IN LAYER   5 AT END OF TIME STEP  18 IN STRESS PERIOD    2
  ---------------------------------------------------------------------------

            1           2           3           4           5           6           7           8           9          10
 ........................................................................................................................
   1    9.998       8.931       7.856       6.770       5.673       4.563       3.442       2.307       1.161      2.5478E-03
   2    9.998       8.932       7.856       6.771       5.675       4.567       3.444       2.309       1.161      2.5492E-03
   3    9.998       8.932       7.858       6.775       5.682       4.576       3.451       2.313       1.163      2.5526E-03
   4    9.998       8.933       7.862       6.784       5.700       4.603       3.469       2.321       1.166      2.5591E-03
   5    9.998       8.935       7.866       6.797       5.735       4.672       3.505       2.335       1.170      2.5687E-03
   6    9.998       8.936       7.870       6.810       5.781       4.810       3.551       2.348       1.173      2.5756E-03
   7    9.998       8.935       7.866       6.797       5.735       4.672       3.505       2.335       1.170      2.5687E-03
   8    9.998       8.933       7.862       6.784       5.700       4.603       3.469       2.321       1.166      2.5593E-03
   9    9.998       8.932       7.858       6.776       5.683       4.577       3.452       2.313       1.163      2.5529E-03
  10    9.998       8.932       7.857       6.772       5.676       4.568       3.446       2.310       1.162      2.5501E-03

 HEAD WILL BE SAVED ON UNIT   51 AT END OF TIME STEP   18, STRESS PERIOD    2

 DRAWDOWN WILL BE SAVED ON UNIT   52 AT END OF TIME STEP   18, STRESS PERIOD    2
1
  VOLUMETRIC BUDGET FOR ENTIRE MODEL AT END OF TIME STEP   18, STRESS PERIOD   2
  ------------------------------------------------------------------------------

     CUMULATIVE VOLUMES      L**3       RATES FOR THIS TIME STEP      L**3/T
     ------------------                 ------------------------

           IN:                                      IN:
           ---                                      ---
             STORAGE =           0.0000               STORAGE =           0.0000
       CONSTANT HEAD =           0.0000         CONSTANT HEAD =           0.0000
               WELLS =        1800.0000                 WELLS =         100.0000
     HEAD DEP BOUNDS =       22138.8809       HEAD DEP BOUNDS =        1163.8689

            TOTAL IN =       23938.8809              TOTAL IN =        1263.8689

          OUT:                                     OUT:
          ----                                     ----
             STORAGE =        1748.5731               STORAGE =          93.0201
       CONSTANT HEAD =           0.0000         CONSTANT HEAD =           0.0000
               WELLS =           0.0000                 WELLS =           0.0000
     HEAD DEP BOUNDS =       22189.9316       HEAD DEP BOUNDS =        1170.8362

           TOTAL OUT =       23938.5039             TOTAL OUT =        1263.8563

            IN - OUT =           0.3770              IN - OUT =       1.2573E-02

 PERCENT DISCREPANCY =           0.00     PERCENT DISCREPANCY =           0.00






         TIME SUMMARY AT END OF TIME STEP   18 IN STRESS PERIOD    2
                    SECONDS     MINUTES      HOURS       DAYS        YEARS
                    -----------------------------------------------------------
   TIME STEP LENGTH  86400.      1440.0      24.000      1.0000     2.73785E-03
 STRESS PERIOD TIME 1.55520E+06  25920.      432.00      18.000     4.92813E-02
         TOTAL TIME 1.64160E+06  27360.      456.00      19.000     5.20192E-02
1
 
 SOLVING FOR HEAD 

 OUTPUT CONTROL FOR STRESS PERIOD    2   TIME STEP   19
    SAVE HEAD FOR ALL LAYERS
    SAVE DRAWDOWN FOR ALL LAYERS
    SAVE BUDGET
    PRINT HEAD FOR ALL LAYERS
    PRINT BUDGET
 UBDSV1 SAVING "         STORAGE" ON UNIT  53 AT TIME STEP 19, STRESS PERIOD   2
 UBDSV2 SAVING "   CONSTANT HEAD" ON UNIT  53 AT TIME STEP 19, STRESS PERIOD   2
 UBDSV1 SAVING "FLOW RIGHT FACE " ON UNIT  53 AT TIME STEP 19, STRESS PERIOD   2
 UBDSV1 SAVING "FLOW FRONT FACE " ON UNIT  53 AT TIME STEP 19, STRESS PERIOD   2
 UBDSV1 SAVING "FLOW LOWER FACE " ON UNIT  53 AT TIME STEP 19, STRESS PERIOD   2

 SAVING SATURATED THICKNESS AND FLOW TERMS ON UNIT   54 FOR MT3DMS
 BY THE LINK-MT3DMS PACKAGE V7 AT TIME STEP   19, STRESS PERIOD    2

1
              HEAD IN LAYER   1 AT END OF TIME STEP  19 IN STRESS PERIOD    2
  ---------------------------------------------------------------------------

            1           2           3           4           5           6           7           8           9          10
 ........................................................................................................................
   1    9.998       8.936       7.861       6.774       5.677       4.568       3.447       2.313       1.166      1.5196E-03
   2    9.998       8.936       7.861       6.776       5.679       4.571       3.449       2.314       1.166      1.5202E-03
   3    9.998       8.936       7.862       6.779       5.685       4.578       3.454       2.317       1.167      1.5218E-03
   4    9.998       8.937       7.865       6.785       5.699       4.602       3.469       2.323       1.170      1.5250E-03
   5    9.998       8.938       7.869       6.797       5.732       4.679       3.503       2.335       1.173      1.5298E-03
   6    9.998       8.939       7.872       6.809       5.787       4.959       3.559       2.348       1.176      1.5336E-03
   7    9.998       8.938       7.869       6.797       5.732       4.679       3.503       2.335       1.173      1.5298E-03
   8    9.998       8.937       7.865       6.785       5.699       4.602       3.469       2.324       1.170      1.5251E-03
   9    9.998       8.936       7.863       6.779       5.685       4.579       3.455       2.317       1.168      1.5220E-03
  10    9.998       8.936       7.861       6.776       5.680       4.572       3.450       2.314       1.167      1.5206E-03
1
              HEAD IN LAYER   2 AT END OF TIME STEP  19 IN STRESS PERIOD    2
  ---------------------------------------------------------------------------

            1           2           3           4           5           6           7           8           9          10
 ........................................................................................................................
   1    9.998       8.934       7.859       6.773       5.676       4.567       3.445       2.311       1.164      2.4997E-03
   2    9.998       8.934       7.859       6.774       5.678       4.569       3.447       2.312       1.164      2.5009E-03
   3    9.998       8.935       7.861       6.778       5.684       4.578       3.454       2.316       1.166      2.5038E-03
   4    9.998       8.936       7.864       6.785       5.700       4.604       3.470       2.323       1.168      2.5095E-03
   5    9.998       8.937       7.868       6.798       5.735       4.683       3.505       2.336       1.172      2.5179E-03
   6    9.998       8.938       7.871       6.810       5.791       5.006       3.562       2.349       1.175      2.5243E-03
   7    9.998       8.937       7.868       6.798       5.735       4.683       3.505       2.336       1.172      2.5179E-03
   8    9.998       8.936       7.864       6.785       5.700       4.604       3.470       2.323       1.168      2.5096E-03
   9    9.998       8.935       7.861       6.778       5.685       4.578       3.454       2.316       1.166      2.5041E-03
  10    9.998       8.934       7.860       6.775       5.679       4.571       3.448       2.313       1.165      2.5016E-03
1
              HEAD IN LAYER   3 AT END OF TIME STEP  19 IN STRESS PERIOD    2
  ---------------------------------------------------------------------------

            1           2           3           4           5           6           7           8           9          10
 ........................................................................................................................
   1    9.998       8.933       7.857       6.771       5.674       4.565       3.444       2.309       1.162      2.5492E-03
   2    9.998       8.933       7.858       6.773       5.677       4.568       3.446       2.311       1.163      2.5505E-03
   3    9.998       8.933       7.860       6.777       5.684       4.578       3.453       2.314       1.164      2.5538E-03
   4    9.998       8.935       7.863       6.785       5.701       4.604       3.470       2.323       1.167      2.5602E-03
   5    9.998       8.936       7.868       6.798       5.737       4.681       3.507       2.336       1.172      2.5696E-03
   6    9.998       8.937       7.871       6.811       5.789       4.902       3.560       2.349       1.175      2.5765E-03
   7    9.998       8.936       7.868       6.798       5.737       4.681       3.507       2.336       1.172      2.5696E-03
   8    9.998       8.935       7.863       6.785       5.701       4.605       3.470       2.323       1.167      2.5603E-03
   9    9.998       8.934       7.860       6.777       5.684       4.578       3.453       2.315       1.165      2.5541E-03
  10    9.998       8.933       7.859       6.774       5.678       4.570       3.447       2.312       1.163      2.5514E-03
1
              HEAD IN LAYER   4 AT END OF TIME STEP  19 IN STRESS PERIOD    2
  ---------------------------------------------------------------------------

            1           2           3           4           5           6           7           8           9          10
 ........................................................................................................................
   1    9.998       8.932       7.856       6.770       5.673       4.564       3.443       2.308       1.161      2.5491E-03
   2    9.998       8.932       7.857       6.772       5.676       4.567       3.445       2.310       1.162      2.5505E-03
   3    9.998       8.933       7.859       6.776       5.683       4.577       3.453       2.314       1.164      2.5540E-03
   4    9.998       8.934       7.863       6.785       5.701       4.605       3.470       2.322       1.167      2.5609E-03
   5    9.998       8.935       7.867       6.799       5.738       4.678       3.507       2.336       1.171      2.5707E-03
   6    9.998       8.936       7.871       6.812       5.786       4.842       3.557       2.350       1.174      2.5779E-03
   7    9.998       8.935       7.868       6.799       5.738       4.678       3.507       2.336       1.171      2.5708E-03
   8    9.998       8.934       7.863       6.785       5.701       4.605       3.471       2.322       1.167      2.5610E-03
   9    9.998       8.933       7.859       6.776       5.684       4.578       3.453       2.314       1.164      2.5544E-03
  10    9.998       8.932       7.858       6.773       5.677       4.569       3.447       2.311       1.162      2.5514E-03
1
              HEAD IN LAYER   5 AT END OF TIME STEP  19 IN STRESS PERIOD    2
  ---------------------------------------------------------------------------

            1           2           3           4           5           6           7           8           9          10
 ........................................................................................................................
   1    9.998       8.931       7.856       6.770       5.673       4.564       3.442       2.308       1.161      2.5480E-03
   2    9.998       8.932       7.857       6.772       5.675       4.567       3.445       2.309       1.161      2.5495E-03
   3    9.998       8.932       7.859       6.776       5.683       4.577       3.452       2.313       1.163      2.5532E-03
   4    9.998       8.934       7.862       6.785       5.701       4.605       3.471       2.322       1.166      2.5602E-03
   5    9.998       8.935       7.867       6.799       5.738       4.676       3.507       2.337       1.171      2.5703E-03
   6    9.998       8.936       7.871       6.812       5.785       4.814       3.555       2.350       1.174      2.5776E-03
   7    9.998       8.935       7.867       6.799       5.738       4.676       3.508       2.337       1.171      2.5704E-03
   8    9.998       8.934       7.862       6.785       5.701       4.605       3.471       2.322       1.166      2.5604E-03
   9    9.998       8.932       7.859       6.776       5.684       4.578       3.453       2.314       1.163      2.5536E-03
  10    9.998       8.932       7.857       6.773       5.677       4.569       3.446       2.310       1.162      2.5505E-03

 HEAD WILL BE SAVED ON UNIT   51 AT END OF TIME STEP   19, STRESS PERIOD    2

 DRAWDOWN WILL BE SAVED ON UNIT   52 AT END OF TIME STEP   19, STRESS PERIOD    2
1
  VOLUMETRIC BUDGET FOR ENTIRE MODEL AT END OF TIME STEP   19, STRESS PERIOD   2
  ------------------------------------------------------------------------------

     CUMULATIVE VOLUMES      L**3       RATES FOR THIS TIME STEP      L**3/T
     ------------------                 ------------------------

           IN:                                      IN:
           ---                                      ---
             STORAGE =           0.0000               STORAGE =           0.0000
       CONSTANT HEAD =           0.0000         CONSTANT HEAD =           0.0000
               WELLS =        1900.0000                 WELLS =         100.0000
     HEAD DEP BOUNDS =       23302.5273       HEAD DEP BOUNDS =        1163.6466

            TOTAL IN =       25202.5273              TOTAL IN =        1263.6466

          OUT:                                     OUT:
          ----                                     ----
             STORAGE =        1840.9596               STORAGE =          92.3865
       CONSTANT HEAD =           0.0000         CONSTANT HEAD =           0.0000
               WELLS =           0.0000                 WELLS =           0.0000
     HEAD DEP BOUNDS =       23361.1914       HEAD DEP BOUNDS =        1171.2599

           TOTAL OUT =       25202.1504             TOTAL OUT =        1263.6464

            IN - OUT =           0.3770              IN - OUT =       2.4414E-04

 PERCENT DISCREPANCY =           0.00     PERCENT DISCREPANCY =           0.00






         TIME SUMMARY AT END OF TIME STEP   19 IN STRESS PERIOD    2
                    SECONDS     MINUTES      HOURS       DAYS        YEARS
                    -----------------------------------------------------------
   TIME STEP LENGTH  86400.      1440.0      24.000      1.0000     2.73785E-03
 STRESS PERIOD TIME 1.64160E+06  27360.      456.00      19.000     5.20192E-02
         TOTAL TIME 1.72800E+06  28800.      480.00      20.000     5.47570E-02
1
 
 SOLVING FOR HEAD 

 OUTPUT CONTROL FOR STRESS PERIOD    2   TIME STEP   20
    SAVE HEAD FOR ALL LAYERS
    SAVE DRAWDOWN FOR ALL LAYERS
    SAVE BUDGET
    PRINT HEAD FOR ALL LAYERS
    PRINT BUDGET
 UBDSV1 SAVING "         STORAGE" ON UNIT  53 AT TIME STEP 20, STRESS PERIOD   2
 UBDSV2 SAVING "   CONSTANT HEAD" ON UNIT  53 AT TIME STEP 20, STRESS PERIOD   2
 UBDSV1 SAVING "FLOW RIGHT FACE " ON UNIT  53 AT TIME STEP 20, STRESS PERIOD   2
 UBDSV1 SAVING "FLOW FRONT FACE " ON UNIT  53 AT TIME STEP 20, STRESS PERIOD   2
 UBDSV1 SAVING "FLOW LOWER FACE " ON UNIT  53 AT TIME STEP 20, STRESS PERIOD   2

 SAVING SATURATED THICKNESS AND FLOW TERMS ON UNIT   54 FOR MT3DMS
 BY THE LINK-MT3DMS PACKAGE V7 AT TIME STEP   20, STRESS PERIOD    2

1
              HEAD IN LAYER   1 AT END OF TIME STEP  20 IN STRESS PERIOD    2
  ---------------------------------------------------------------------------

            1           2           3           4           5           6           7           8           9          10
 ........................................................................................................................
   1    9.998       8.936       7.861       6.775       5.677       4.568       3.447       2.313       1.166      1.5197E-03
   2    9.998       8.936       7.861       6.776       5.680       4.571       3.449       2.314       1.166      1.5204E-03
   3    9.998       8.936       7.863       6.779       5.686       4.579       3.455       2.317       1.168      1.5222E-03
   4    9.998       8.937       7.866       6.786       5.701       4.605       3.471       2.324       1.170      1.5256E-03
   5    9.998       8.939       7.870       6.799       5.735       4.683       3.506       2.337       1.174      1.5307E-03
   6    9.998       8.939       7.873       6.811       5.791       4.965       3.564       2.350       1.177      1.5347E-03
   7    9.998       8.939       7.870       6.799       5.735       4.684       3.506       2.337       1.174      1.5307E-03
   8    9.998       8.937       7.866       6.786       5.701       4.605       3.471       2.325       1.170      1.5257E-03
   9    9.998       8.937       7.863       6.779       5.686       4.580       3.456       2.318       1.168      1.5223E-03
  10    9.998       8.936       7.862       6.777       5.681       4.572       3.450       2.315       1.167      1.5208E-03
1
              HEAD IN LAYER   2 AT END OF TIME STEP  20 IN STRESS PERIOD    2
  ---------------------------------------------------------------------------

            1           2           3           4           5           6           7           8           9          10
 ........................................................................................................................
   1    9.998       8.934       7.859       6.773       5.676       4.567       3.445       2.311       1.164      2.4999E-03
   2    9.998       8.934       7.860       6.774       5.678       4.570       3.448       2.312       1.165      2.5012E-03
   3    9.998       8.935       7.861       6.778       5.685       4.579       3.454       2.316       1.166      2.5043E-03
   4    9.998       8.936       7.865       6.786       5.702       4.606       3.471       2.324       1.169      2.5105E-03
   5    9.998       8.937       7.869       6.800       5.738       4.686       3.508       2.338       1.173      2.5195E-03
   6    9.998       8.938       7.872       6.812       5.795       5.011       3.566       2.351       1.176      2.5262E-03
   7    9.998       8.937       7.869       6.800       5.738       4.686       3.508       2.338       1.173      2.5195E-03
   8    9.998       8.936       7.865       6.786       5.702       4.606       3.472       2.324       1.169      2.5106E-03
   9    9.998       8.935       7.861       6.778       5.685       4.580       3.455       2.316       1.166      2.5046E-03
  10    9.998       8.934       7.860       6.775       5.679       4.571       3.449       2.313       1.165      2.5020E-03
1
              HEAD IN LAYER   3 AT END OF TIME STEP  20 IN STRESS PERIOD    2
  ---------------------------------------------------------------------------

            1           2           3           4           5           6           7           8           9          10
 ........................................................................................................................
   1    9.998       8.933       7.857       6.771       5.674       4.565       3.444       2.309       1.162      2.5494E-03
   2    9.998       8.933       7.858       6.773       5.677       4.569       3.446       2.311       1.163      2.5508E-03
   3    9.998       8.934       7.860       6.777       5.685       4.579       3.454       2.315       1.165      2.5544E-03
   4    9.998       8.935       7.864       6.786       5.702       4.607       3.472       2.324       1.168      2.5613E-03
   5    9.998       8.936       7.869       6.800       5.740       4.684       3.509       2.338       1.172      2.5712E-03
   6    9.998       8.937       7.872       6.813       5.793       4.907       3.563       2.351       1.176      2.5784E-03
   7    9.998       8.936       7.869       6.800       5.740       4.684       3.509       2.338       1.172      2.5712E-03
   8    9.998       8.935       7.864       6.786       5.703       4.607       3.472       2.324       1.168      2.5614E-03
   9    9.998       8.934       7.860       6.778       5.685       4.579       3.454       2.315       1.165      2.5548E-03
  10    9.998       8.933       7.859       6.774       5.679       4.570       3.448       2.312       1.163      2.5518E-03
1
              HEAD IN LAYER   4 AT END OF TIME STEP  20 IN STRESS PERIOD    2
  ---------------------------------------------------------------------------

            1           2           3           4           5           6           7           8           9          10
 ........................................................................................................................
   1    9.998       8.932       7.856       6.771       5.674       4.565       3.443       2.308       1.161      2.5493E-03
   2    9.998       8.932       7.857       6.772       5.676       4.568       3.446       2.310       1.162      2.5508E-03
   3    9.998       8.933       7.859       6.777       5.684       4.578       3.453       2.314       1.164      2.5547E-03
   4    9.998       8.934       7.863       6.786       5.703       4.607       3.472       2.323       1.167      2.5620E-03
   5    9.998       8.936       7.868       6.801       5.740       4.681       3.510       2.338       1.172      2.5724E-03
   6    9.998       8.937       7.872       6.814       5.790       4.846       3.560       2.352       1.175      2.5798E-03
   7    9.998       8.936       7.868       6.801       5.740       4.681       3.510       2.338       1.172      2.5724E-03
   8    9.998       8.934       7.863       6.786       5.703       4.607       3.472       2.323       1.167      2.5621E-03
   9    9.998       8.933       7.860       6.777       5.685       4.579       3.454       2.315       1.164      2.5551E-03
  10    9.998       8.932       7.858       6.773       5.678       4.570       3.447       2.311       1.163      2.5519E-03
1
              HEAD IN LAYER   5 AT END OF TIME STEP  20 IN STRESS PERIOD    2
  ---------------------------------------------------------------------------

            1           2           3           4           5           6           7           8           9          10
 ........................................................................................................................
   1    9.998       8.931       7.856       6.770       5.673       4.564       3.442       2.308       1.161      2.5482E-03
   2    9.998       8.932       7.857       6.772       5.676       4.568       3.445       2.310       1.162      2.5498E-03
   3    9.998       8.932       7.859       6.776       5.684       4.578       3.453       2.314       1.163      2.5538E-03
   4    9.998       8.934       7.863       6.786       5.703       4.607       3.472       2.323       1.167      2.5613E-03
   5    9.998       8.935       7.868       6.801       5.741       4.679       3.510       2.338       1.172      2.5720E-03
   6    9.998       8.936       7.872       6.814       5.788       4.818       3.558       2.352       1.175      2.5795E-03
   7    9.998       8.936       7.868       6.801       5.741       4.679       3.510       2.338       1.172      2.5720E-03
   8    9.998       8.934       7.863       6.786       5.703       4.607       3.473       2.323       1.167      2.5615E-03
   9    9.998       8.933       7.859       6.777       5.685       4.579       3.454       2.314       1.164      2.5542E-03
  10    9.998       8.932       7.858       6.773       5.678       4.570       3.447       2.311       1.162      2.5510E-03

 HEAD WILL BE SAVED ON UNIT   51 AT END OF TIME STEP   20, STRESS PERIOD    2

 DRAWDOWN WILL BE SAVED ON UNIT   52 AT END OF TIME STEP   20, STRESS PERIOD    2
1
  VOLUMETRIC BUDGET FOR ENTIRE MODEL AT END OF TIME STEP   20, STRESS PERIOD   2
  ------------------------------------------------------------------------------

     CUMULATIVE VOLUMES      L**3       RATES FOR THIS TIME STEP      L**3/T
     ------------------                 ------------------------

           IN:                                      IN:
           ---                                      ---
             STORAGE =           0.0000               STORAGE =           0.0000
       CONSTANT HEAD =           0.0000         CONSTANT HEAD =           0.0000
               WELLS =        2000.0000                 WELLS =         100.0000
     HEAD DEP BOUNDS =       24465.9492       HEAD DEP BOUNDS =        1163.4227

            TOTAL IN =       26465.9492              TOTAL IN =        1263.4227

          OUT:                                     OUT:
          ----                                     ----
             STORAGE =        1932.6808               STORAGE =          91.7212
       CONSTANT HEAD =           0.0000         CONSTANT HEAD =           0.0000
               WELLS =           0.0000                 WELLS =           0.0000
     HEAD DEP BOUNDS =       24532.8828       HEAD DEP BOUNDS =        1171.6920

           TOTAL OUT =       26465.5645             TOTAL OUT =        1263.4132

            IN - OUT =           0.3848              IN - OUT =       9.5215E-03

 PERCENT DISCREPANCY =           0.00     PERCENT DISCREPANCY =           0.00






         TIME SUMMARY AT END OF TIME STEP   20 IN STRESS PERIOD    2
                    SECONDS     MINUTES      HOURS       DAYS        YEARS
                    -----------------------------------------------------------
   TIME STEP LENGTH  86400.      1440.0      24.000      1.0000     2.73785E-03
 STRESS PERIOD TIME 1.72800E+06  28800.      480.00      20.000     5.47570E-02
         TOTAL TIME 1.81440E+06  30240.      504.00      21.000     5.74949E-02
1
 
 SOLVING FOR HEAD 

 OUTPUT CONTROL FOR STRESS PERIOD    2   TIME STEP   21
    SAVE HEAD FOR ALL LAYERS
    SAVE DRAWDOWN FOR ALL LAYERS
    SAVE BUDGET
    PRINT HEAD FOR ALL LAYERS
    PRINT BUDGET
 UBDSV1 SAVING "         STORAGE" ON UNIT  53 AT TIME STEP 21, STRESS PERIOD   2
 UBDSV2 SAVING "   CONSTANT HEAD" ON UNIT  53 AT TIME STEP 21, STRESS PERIOD   2
 UBDSV1 SAVING "FLOW RIGHT FACE " ON UNIT  53 AT TIME STEP 21, STRESS PERIOD   2
 UBDSV1 SAVING "FLOW FRONT FACE " ON UNIT  53 AT TIME STEP 21, STRESS PERIOD   2
 UBDSV1 SAVING "FLOW LOWER FACE " ON UNIT  53 AT TIME STEP 21, STRESS PERIOD   2

 SAVING SATURATED THICKNESS AND FLOW TERMS ON UNIT   54 FOR MT3DMS
 BY THE LINK-MT3DMS PACKAGE V7 AT TIME STEP   21, STRESS PERIOD    2

1
              HEAD IN LAYER   1 AT END OF TIME STEP  21 IN STRESS PERIOD    2
  ---------------------------------------------------------------------------

            1           2           3           4           5           6           7           8           9          10
 ........................................................................................................................
   1    9.998       8.936       7.861       6.775       5.678       4.569       3.447       2.313       1.166      1.5198E-03
   2    9.998       8.936       7.861       6.776       5.680       4.572       3.449       2.314       1.166      1.5205E-03
   3    9.998       8.937       7.863       6.780       5.686       4.580       3.456       2.318       1.168      1.5225E-03
   4    9.998       8.938       7.866       6.787       5.703       4.607       3.473       2.326       1.171      1.5262E-03
   5    9.998       8.939       7.870       6.800       5.738       4.687       3.509       2.339       1.175      1.5317E-03
   6    9.998       8.940       7.874       6.813       5.795       4.970       3.567       2.352       1.178      1.5359E-03
   7    9.998       8.939       7.871       6.800       5.738       4.687       3.509       2.339       1.175      1.5317E-03
   8    9.998       8.938       7.866       6.787       5.703       4.607       3.473       2.326       1.171      1.5263E-03
   9    9.998       8.937       7.863       6.780       5.687       4.581       3.456       2.318       1.168      1.5227E-03
  10    9.998       8.936       7.862       6.777       5.681       4.573       3.451       2.315       1.167      1.5211E-03
1
              HEAD IN LAYER   2 AT END OF TIME STEP  21 IN STRESS PERIOD    2
  ---------------------------------------------------------------------------

            1           2           3           4           5           6           7           8           9          10
 ........................................................................................................................
   1    9.998       8.934       7.859       6.773       5.676       4.567       3.446       2.311       1.164      2.5001E-03
   2    9.998       8.934       7.860       6.775       5.679       4.570       3.448       2.313       1.165      2.5015E-03
   3    9.998       8.935       7.862       6.779       5.686       4.580       3.455       2.317       1.166      2.5049E-03
   4    9.998       8.936       7.865       6.787       5.704       4.608       3.473       2.325       1.169      2.5115E-03
   5    9.998       8.938       7.870       6.801       5.741       4.690       3.511       2.339       1.174      2.5210E-03
   6    9.998       8.939       7.873       6.815       5.798       5.016       3.570       2.353       1.177      2.5280E-03
   7    9.998       8.938       7.870       6.801       5.741       4.690       3.511       2.339       1.174      2.5211E-03
   8    9.998       8.936       7.865       6.787       5.704       4.608       3.473       2.325       1.169      2.5116E-03
   9    9.998       8.935       7.862       6.779       5.686       4.581       3.456       2.317       1.166      2.5053E-03
  10    9.998       8.935       7.860       6.776       5.680       4.572       3.450       2.314       1.165      2.5024E-03
1
              HEAD IN LAYER   3 AT END OF TIME STEP  21 IN STRESS PERIOD    2
  ---------------------------------------------------------------------------

            1           2           3           4           5           6           7           8           9          10
 ........................................................................................................................
   1    9.998       8.933       7.857       6.772       5.675       4.566       3.444       2.310       1.162      2.5496E-03
   2    9.998       8.933       7.858       6.773       5.677       4.569       3.447       2.311       1.163      2.5511E-03
   3    9.998       8.934       7.860       6.778       5.685       4.580       3.455       2.316       1.165      2.5550E-03
   4    9.998       8.935       7.864       6.787       5.704       4.609       3.474       2.325       1.168      2.5624E-03
   5    9.998       8.937       7.870       6.802       5.742       4.688       3.512       2.340       1.173      2.5728E-03
   6    9.998       8.938       7.873       6.815       5.796       4.911       3.567       2.353       1.177      2.5803E-03
   7    9.998       8.937       7.870       6.802       5.742       4.688       3.512       2.340       1.173      2.5728E-03
   8    9.998       8.935       7.864       6.787       5.704       4.609       3.474       2.325       1.168      2.5625E-03
   9    9.998       8.934       7.861       6.778       5.686       4.580       3.455       2.316       1.165      2.5554E-03
  10    9.998       8.933       7.859       6.775       5.679       4.571       3.448       2.312       1.164      2.5522E-03
1
              HEAD IN LAYER   4 AT END OF TIME STEP  21 IN STRESS PERIOD    2
  ---------------------------------------------------------------------------

            1           2           3           4           5           6           7           8           9          10
 ........................................................................................................................
   1    9.998       8.932       7.857       6.771       5.674       4.565       3.443       2.309       1.161      2.5495E-03
   2    9.998       8.932       7.857       6.773       5.677       4.568       3.446       2.310       1.162      2.5511E-03
   3    9.998       8.933       7.860       6.777       5.685       4.580       3.454       2.315       1.164      2.5553E-03
   4    9.998       8.934       7.864       6.787       5.705       4.609       3.474       2.324       1.168      2.5631E-03
   5    9.998       8.936       7.869       6.802       5.743       4.684       3.513       2.340       1.173      2.5740E-03
   6    9.998       8.937       7.873       6.816       5.793       4.850       3.563       2.354       1.176      2.5817E-03
   7    9.998       8.936       7.869       6.802       5.743       4.684       3.513       2.340       1.173      2.5740E-03
   8    9.998       8.934       7.864       6.787       5.705       4.609       3.474       2.325       1.168      2.5632E-03
   9    9.998       8.933       7.860       6.778       5.686       4.580       3.455       2.315       1.164      2.5558E-03
  10    9.998       8.932       7.858       6.774       5.679       4.571       3.448       2.312       1.163      2.5523E-03
1
              HEAD IN LAYER   5 AT END OF TIME STEP  21 IN STRESS PERIOD    2
  ---------------------------------------------------------------------------

            1           2           3           4           5           6           7           8           9          10
 ........................................................................................................................
   1    9.998       8.931       7.856       6.770       5.673       4.564       3.443       2.308       1.161      2.5484E-03
   2    9.998       8.932       7.857       6.772       5.676       4.568       3.446       2.310       1.162      2.5502E-03
   3    9.998       8.933       7.859       6.777       5.685       4.579       3.454       2.315       1.164      2.5545E-03
   4    9.998       8.934       7.864       6.787       5.705       4.609       3.474       2.324       1.167      2.5624E-03
   5    9.998       8.936       7.869       6.802       5.743       4.682       3.513       2.340       1.172      2.5736E-03
   6    9.998       8.937       7.873       6.816       5.791       4.822       3.561       2.354       1.176      2.5814E-03
   7    9.998       8.936       7.869       6.802       5.743       4.682       3.513       2.340       1.172      2.5737E-03
   8    9.998       8.934       7.864       6.787       5.705       4.609       3.474       2.324       1.167      2.5626E-03
   9    9.998       8.933       7.860       6.778       5.686       4.580       3.455       2.315       1.164      2.5550E-03
  10    9.998       8.932       7.858       6.773       5.678       4.570       3.447       2.311       1.162      2.5514E-03

 HEAD WILL BE SAVED ON UNIT   51 AT END OF TIME STEP   21, STRESS PERIOD    2

 DRAWDOWN WILL BE SAVED ON UNIT   52 AT END OF TIME STEP   21, STRESS PERIOD    2
1
  VOLUMETRIC BUDGET FOR ENTIRE MODEL AT END OF TIME STEP   21, STRESS PERIOD   2
  ------------------------------------------------------------------------------

     CUMULATIVE VOLUMES      L**3       RATES FOR THIS TIME STEP      L**3/T
     ------------------                 ------------------------

           IN:                                      IN:
           ---                                      ---
             STORAGE =           0.0000               STORAGE =           0.0000
       CONSTANT HEAD =           0.0000         CONSTANT HEAD =           0.0000
               WELLS =        2100.0000                 WELLS =         100.0000
     HEAD DEP BOUNDS =       25629.1328       HEAD DEP BOUNDS =        1163.1833

            TOTAL IN =       27729.1328              TOTAL IN =        1263.1833

          OUT:                                     OUT:
          ----                                     ----
             STORAGE =        2023.7288               STORAGE =          91.0479
       CONSTANT HEAD =           0.0000         CONSTANT HEAD =           0.0000
               WELLS =           0.0000                 WELLS =           0.0000
     HEAD DEP BOUNDS =       25705.0137       HEAD DEP BOUNDS =        1172.1309

           TOTAL OUT =       27728.7422             TOTAL OUT =        1263.1788

            IN - OUT =           0.3906              IN - OUT =       4.5166E-03

 PERCENT DISCREPANCY =           0.00     PERCENT DISCREPANCY =           0.00






         TIME SUMMARY AT END OF TIME STEP   21 IN STRESS PERIOD    2
                    SECONDS     MINUTES      HOURS       DAYS        YEARS
                    -----------------------------------------------------------
   TIME STEP LENGTH  86400.      1440.0      24.000      1.0000     2.73785E-03
 STRESS PERIOD TIME 1.81440E+06  30240.      504.00      21.000     5.74949E-02
         TOTAL TIME 1.90080E+06  31680.      528.00      22.000     6.02327E-02
1
 
 SOLVING FOR HEAD 

 OUTPUT CONTROL FOR STRESS PERIOD    2   TIME STEP   22
    SAVE HEAD FOR ALL LAYERS
    SAVE DRAWDOWN FOR ALL LAYERS
    SAVE BUDGET
    PRINT HEAD FOR ALL LAYERS
    PRINT BUDGET
 UBDSV1 SAVING "         STORAGE" ON UNIT  53 AT TIME STEP 22, STRESS PERIOD   2
 UBDSV2 SAVING "   CONSTANT HEAD" ON UNIT  53 AT TIME STEP 22, STRESS PERIOD   2
 UBDSV1 SAVING "FLOW RIGHT FACE " ON UNIT  53 AT TIME STEP 22, STRESS PERIOD   2
 UBDSV1 SAVING "FLOW FRONT FACE " ON UNIT  53 AT TIME STEP 22, STRESS PERIOD   2
 UBDSV1 SAVING "FLOW LOWER FACE " ON UNIT  53 AT TIME STEP 22, STRESS PERIOD   2

 SAVING SATURATED THICKNESS AND FLOW TERMS ON UNIT   54 FOR MT3DMS
 BY THE LINK-MT3DMS PACKAGE V7 AT TIME STEP   22, STRESS PERIOD    2

1
              HEAD IN LAYER   1 AT END OF TIME STEP  22 IN STRESS PERIOD    2
  ---------------------------------------------------------------------------

            1           2           3           4           5           6           7           8           9          10
 ........................................................................................................................
   1    9.998       8.936       7.861       6.775       5.678       4.569       3.447       2.313       1.166      1.5200E-03
   2    9.998       8.936       7.862       6.776       5.680       4.572       3.450       2.315       1.167      1.5207E-03
   3    9.998       8.937       7.863       6.780       5.687       4.582       3.457       2.318       1.168      1.5228E-03
   4    9.998       8.938       7.867       6.788       5.705       4.609       3.474       2.327       1.171      1.5268E-03
   5    9.998       8.939       7.871       6.802       5.741       4.691       3.512       2.340       1.175      1.5327E-03
   6    9.998       8.940       7.875       6.815       5.799       4.975       3.571       2.354       1.179      1.5370E-03
   7    9.998       8.939       7.871       6.802       5.741       4.691       3.512       2.340       1.175      1.5327E-03
   8    9.998       8.938       7.867       6.789       5.705       4.609       3.474       2.327       1.171      1.5269E-03
   9    9.998       8.937       7.864       6.781       5.688       4.582       3.457       2.319       1.168      1.5231E-03
  10    9.998       8.936       7.862       6.777       5.682       4.574       3.451       2.316       1.167      1.5213E-03
1
              HEAD IN LAYER   2 AT END OF TIME STEP  22 IN STRESS PERIOD    2
  ---------------------------------------------------------------------------

            1           2           3           4           5           6           7           8           9          10
 ........................................................................................................................
   1    9.998       8.934       7.859       6.773       5.676       4.567       3.446       2.311       1.164      2.5003E-03
   2    9.998       8.934       7.860       6.775       5.679       4.571       3.448       2.313       1.165      2.5018E-03
   3    9.998       8.935       7.862       6.779       5.687       4.581       3.456       2.317       1.167      2.5055E-03
   4    9.998       8.936       7.866       6.788       5.705       4.610       3.475       2.326       1.170      2.5126E-03
   5    9.998       8.938       7.871       6.803       5.744       4.694       3.514       2.341       1.175      2.5226E-03
   6    9.998       8.939       7.874       6.817       5.802       5.020       3.573       2.355       1.178      2.5299E-03
   7    9.998       8.938       7.871       6.803       5.744       4.694       3.514       2.341       1.175      2.5227E-03
   8    9.998       8.936       7.866       6.788       5.706       4.610       3.475       2.326       1.170      2.5127E-03
   9    9.998       8.935       7.862       6.780       5.687       4.582       3.457       2.318       1.167      2.5059E-03
  10    9.998       8.935       7.861       6.776       5.681       4.573       3.450       2.314       1.165      2.5028E-03
1
              HEAD IN LAYER   3 AT END OF TIME STEP  22 IN STRESS PERIOD    2
  ---------------------------------------------------------------------------

            1           2           3           4           5           6           7           8           9          10
 ........................................................................................................................
   1    9.998       8.933       7.858       6.772       5.675       4.566       3.444       2.310       1.163      2.5498E-03
   2    9.998       8.933       7.859       6.774       5.678       4.570       3.447       2.312       1.163      2.5515E-03
   3    9.998       8.934       7.861       6.779       5.686       4.581       3.456       2.316       1.165      2.5557E-03
   4    9.998       8.935       7.865       6.788       5.706       4.611       3.475       2.326       1.169      2.5635E-03
   5    9.998       8.937       7.870       6.804       5.745       4.691       3.515       2.341       1.174      2.5744E-03
   6    9.998       8.938       7.874       6.817       5.800       4.915       3.570       2.355       1.177      2.5822E-03
   7    9.998       8.937       7.870       6.804       5.745       4.691       3.515       2.341       1.174      2.5745E-03
   8    9.998       8.935       7.865       6.788       5.706       4.611       3.476       2.326       1.169      2.5636E-03
   9    9.998       8.934       7.861       6.779       5.687       4.582       3.456       2.317       1.165      2.5561E-03
  10    9.998       8.933       7.859       6.775       5.680       4.572       3.449       2.313       1.164      2.5527E-03
1
              HEAD IN LAYER   4 AT END OF TIME STEP  22 IN STRESS PERIOD    2
  ---------------------------------------------------------------------------

            1           2           3           4           5           6           7           8           9          10
 ........................................................................................................................
   1    9.998       8.932       7.857       6.771       5.674       4.565       3.443       2.309       1.162      2.5497E-03
   2    9.998       8.932       7.858       6.773       5.677       4.569       3.447       2.311       1.162      2.5515E-03
   3    9.998       8.933       7.860       6.778       5.686       4.581       3.455       2.316       1.164      2.5560E-03
   4    9.998       8.935       7.864       6.788       5.706       4.611       3.476       2.326       1.168      2.5642E-03
   5    9.998       8.937       7.870       6.804       5.746       4.687       3.515       2.341       1.173      2.5756E-03
   6    9.998       8.938       7.874       6.818       5.796       4.854       3.567       2.356       1.177      2.5836E-03
   7    9.998       8.937       7.870       6.804       5.746       4.688       3.515       2.342       1.173      2.5757E-03
   8    9.998       8.935       7.865       6.788       5.707       4.611       3.476       2.326       1.168      2.5644E-03
   9    9.998       8.933       7.860       6.779       5.687       4.581       3.456       2.316       1.165      2.5565E-03
  10    9.998       8.933       7.858       6.774       5.679       4.571       3.448       2.312       1.163      2.5528E-03
1
              HEAD IN LAYER   5 AT END OF TIME STEP  22 IN STRESS PERIOD    2
  ---------------------------------------------------------------------------

            1           2           3           4           5           6           7           8           9          10
 ........................................................................................................................
   1    9.998       8.931       7.856       6.771       5.674       4.565       3.443       2.308       1.161      2.5487E-03
   2    9.998       8.932       7.857       6.773       5.677       4.569       3.446       2.310       1.162      2.5505E-03
   3    9.998       8.933       7.860       6.778       5.686       4.581       3.455       2.315       1.164      2.5551E-03
   4    9.998       8.934       7.864       6.788       5.706       4.611       3.476       2.325       1.168      2.5636E-03
   5    9.998       8.936       7.870       6.804       5.746       4.685       3.515       2.342       1.173      2.5752E-03
   6    9.998       8.937       7.874       6.818       5.794       4.826       3.564       2.356       1.177      2.5833E-03
   7    9.998       8.936       7.870       6.804       5.746       4.685       3.516       2.342       1.173      2.5753E-03
   8    9.998       8.934       7.864       6.788       5.707       4.611       3.476       2.326       1.168      2.5638E-03
   9    9.998       8.933       7.860       6.778       5.687       4.581       3.456       2.316       1.164      2.5557E-03
  10    9.998       8.932       7.858       6.774       5.679       4.571       3.448       2.312       1.162      2.5519E-03

 HEAD WILL BE SAVED ON UNIT   51 AT END OF TIME STEP   22, STRESS PERIOD    2

 DRAWDOWN WILL BE SAVED ON UNIT   52 AT END OF TIME STEP   22, STRESS PERIOD    2
1
  VOLUMETRIC BUDGET FOR ENTIRE MODEL AT END OF TIME STEP   22, STRESS PERIOD   2
  ------------------------------------------------------------------------------

     CUMULATIVE VOLUMES      L**3       RATES FOR THIS TIME STEP      L**3/T
     ------------------                 ------------------------

           IN:                                      IN:
           ---                                      ---
             STORAGE =           0.0000               STORAGE =           0.0000
       CONSTANT HEAD =           0.0000         CONSTANT HEAD =           0.0000
               WELLS =        2200.0000                 WELLS =         100.0000
     HEAD DEP BOUNDS =       26792.0684       HEAD DEP BOUNDS =        1162.9359

            TOTAL IN =       28992.0684              TOTAL IN =        1262.9359

          OUT:                                     OUT:
          ----                                     ----
             STORAGE =        2114.0889               STORAGE =          90.3601
       CONSTANT HEAD =           0.0000         CONSTANT HEAD =           0.0000
               WELLS =           0.0000                 WELLS =           0.0000
     HEAD DEP BOUNDS =       26877.5898       HEAD DEP BOUNDS =        1172.5770

           TOTAL OUT =       28991.6797             TOTAL OUT =        1262.9371

            IN - OUT =           0.3887              IN - OUT =      -1.2207E-03

 PERCENT DISCREPANCY =           0.00     PERCENT DISCREPANCY =          -0.00






         TIME SUMMARY AT END OF TIME STEP   22 IN STRESS PERIOD    2
                    SECONDS     MINUTES      HOURS       DAYS        YEARS
                    -----------------------------------------------------------
   TIME STEP LENGTH  86400.      1440.0      24.000      1.0000     2.73785E-03
 STRESS PERIOD TIME 1.90080E+06  31680.      528.00      22.000     6.02327E-02
         TOTAL TIME 1.98720E+06  33120.      552.00      23.000     6.29706E-02
1
 
 SOLVING FOR HEAD 

 OUTPUT CONTROL FOR STRESS PERIOD    2   TIME STEP   23
    SAVE HEAD FOR ALL LAYERS
    SAVE DRAWDOWN FOR ALL LAYERS
    SAVE BUDGET
    PRINT HEAD FOR ALL LAYERS
    PRINT BUDGET
 UBDSV1 SAVING "         STORAGE" ON UNIT  53 AT TIME STEP 23, STRESS PERIOD   2
 UBDSV2 SAVING "   CONSTANT HEAD" ON UNIT  53 AT TIME STEP 23, STRESS PERIOD   2
 UBDSV1 SAVING "FLOW RIGHT FACE " ON UNIT  53 AT TIME STEP 23, STRESS PERIOD   2
 UBDSV1 SAVING "FLOW FRONT FACE " ON UNIT  53 AT TIME STEP 23, STRESS PERIOD   2
 UBDSV1 SAVING "FLOW LOWER FACE " ON UNIT  53 AT TIME STEP 23, STRESS PERIOD   2

 SAVING SATURATED THICKNESS AND FLOW TERMS ON UNIT   54 FOR MT3DMS
 BY THE LINK-MT3DMS PACKAGE V7 AT TIME STEP   23, STRESS PERIOD    2

1
              HEAD IN LAYER   1 AT END OF TIME STEP  23 IN STRESS PERIOD    2
  ---------------------------------------------------------------------------

            1           2           3           4           5           6           7           8           9          10
 ........................................................................................................................
   1    9.998       8.936       7.861       6.775       5.678       4.569       3.448       2.313       1.166      1.5201E-03
   2    9.998       8.936       7.862       6.777       5.681       4.573       3.450       2.315       1.167      1.5210E-03
   3    9.998       8.937       7.864       6.781       5.688       4.583       3.458       2.319       1.168      1.5232E-03
   4    9.998       8.938       7.867       6.790       5.706       4.611       3.476       2.328       1.172      1.5275E-03
   5    9.998       8.940       7.872       6.804       5.744       4.695       3.515       2.342       1.176      1.5337E-03
   6    9.998       8.940       7.876       6.817       5.802       4.980       3.575       2.356       1.180      1.5383E-03
   7    9.998       8.940       7.872       6.804       5.744       4.695       3.515       2.342       1.176      1.5337E-03
   8    9.998       8.938       7.867       6.790       5.706       4.611       3.476       2.328       1.172      1.5275E-03
   9    9.998       8.937       7.864       6.781       5.689       4.583       3.458       2.319       1.169      1.5235E-03
  10    9.998       8.936       7.862       6.778       5.682       4.574       3.452       2.316       1.167      1.5216E-03
1
              HEAD IN LAYER   2 AT END OF TIME STEP  23 IN STRESS PERIOD    2
  ---------------------------------------------------------------------------

            1           2           3           4           5           6           7           8           9          10
 ........................................................................................................................
   1    9.998       8.934       7.859       6.773       5.677       4.568       3.446       2.312       1.164      2.5005E-03
   2    9.998       8.934       7.860       6.775       5.680       4.571       3.449       2.313       1.165      2.5021E-03
   3    9.998       8.935       7.862       6.780       5.688       4.582       3.457       2.318       1.167      2.5061E-03
   4    9.998       8.937       7.866       6.789       5.707       4.612       3.477       2.327       1.170      2.5136E-03
   5    9.998       8.938       7.872       6.805       5.746       4.697       3.516       2.343       1.175      2.5242E-03
   6    9.998       8.939       7.875       6.819       5.805       5.025       3.577       2.357       1.179      2.5318E-03
   7    9.998       8.938       7.872       6.805       5.746       4.697       3.517       2.343       1.175      2.5243E-03
   8    9.998       8.937       7.866       6.790       5.707       4.612       3.477       2.327       1.170      2.5138E-03
   9    9.998       8.935       7.863       6.780       5.688       4.583       3.458       2.318       1.167      2.5066E-03
  10    9.998       8.935       7.861       6.777       5.681       4.573       3.451       2.315       1.166      2.5033E-03
1
              HEAD IN LAYER   3 AT END OF TIME STEP  23 IN STRESS PERIOD    2
  ---------------------------------------------------------------------------

            1           2           3           4           5           6           7           8           9          10
 ........................................................................................................................
   1    9.998       8.933       7.858       6.772       5.675       4.566       3.445       2.310       1.163      2.5500E-03
   2    9.998       8.933       7.859       6.774       5.678       4.570       3.448       2.312       1.163      2.5518E-03
   3    9.998       8.934       7.861       6.779       5.687       4.582       3.457       2.317       1.166      2.5563E-03
   4    9.998       8.936       7.866       6.789       5.708       4.613       3.477       2.327       1.169      2.5646E-03
   5    9.998       8.937       7.871       6.805       5.748       4.694       3.518       2.343       1.175      2.5760E-03
   6    9.998       8.938       7.875       6.819       5.803       4.919       3.573       2.357       1.178      2.5841E-03
   7    9.998       8.937       7.871       6.805       5.748       4.694       3.518       2.343       1.175      2.5761E-03
   8    9.998       8.936       7.866       6.790       5.708       4.613       3.477       2.327       1.169      2.5648E-03
   9    9.998       8.934       7.862       6.780       5.688       4.583       3.457       2.317       1.166      2.5568E-03
  10    9.998       8.934       7.860       6.776       5.680       4.573       3.450       2.313       1.164      2.5532E-03
1
              HEAD IN LAYER   4 AT END OF TIME STEP  23 IN STRESS PERIOD    2
  ---------------------------------------------------------------------------

            1           2           3           4           5           6           7           8           9          10
 ........................................................................................................................
   1    9.998       8.932       7.857       6.771       5.674       4.565       3.444       2.309       1.162      2.5499E-03
   2    9.998       8.932       7.858       6.773       5.678       4.570       3.447       2.311       1.163      2.5519E-03
   3    9.998       8.933       7.861       6.779       5.687       4.582       3.456       2.316       1.165      2.5566E-03
   4    9.998       8.935       7.865       6.789       5.708       4.613       3.477       2.327       1.169      2.5653E-03
   5    9.998       8.937       7.871       6.806       5.748       4.690       3.518       2.343       1.174      2.5773E-03
   6    9.998       8.938       7.875       6.820       5.799       4.858       3.570       2.357       1.178      2.5855E-03
   7    9.998       8.937       7.871       6.806       5.748       4.691       3.518       2.343       1.174      2.5773E-03
   8    9.998       8.935       7.865       6.789       5.708       4.613       3.478       2.327       1.169      2.5656E-03
   9    9.998       8.934       7.861       6.779       5.688       4.583       3.457       2.317       1.165      2.5572E-03
  10    9.998       8.933       7.859       6.775       5.680       4.572       3.449       2.312       1.163      2.5533E-03
1
              HEAD IN LAYER   5 AT END OF TIME STEP  23 IN STRESS PERIOD    2
  ---------------------------------------------------------------------------

            1           2           3           4           5           6           7           8           9          10
 ........................................................................................................................
   1    9.998       8.932       7.856       6.771       5.674       4.565       3.443       2.308       1.161      2.5489E-03
   2    9.998       8.932       7.858       6.773       5.677       4.569       3.447       2.311       1.162      2.5509E-03
   3    9.998       8.933       7.860       6.778       5.687       4.582       3.456       2.316       1.164      2.5558E-03
   4    9.998       8.935       7.865       6.789       5.708       4.613       3.477       2.327       1.168      2.5647E-03
   5    9.998       8.937       7.871       6.806       5.748       4.688       3.518       2.343       1.174      2.5769E-03
   6    9.998       8.938       7.875       6.820       5.797       4.830       3.567       2.357       1.178      2.5852E-03
   7    9.998       8.937       7.871       6.806       5.748       4.688       3.518       2.343       1.174      2.5769E-03
   8    9.998       8.935       7.865       6.789       5.708       4.613       3.478       2.327       1.168      2.5650E-03
   9    9.998       8.933       7.861       6.779       5.688       4.583       3.457       2.316       1.165      2.5564E-03
  10    9.998       8.932       7.858       6.775       5.680       4.572       3.449       2.312       1.163      2.5524E-03

 HEAD WILL BE SAVED ON UNIT   51 AT END OF TIME STEP   23, STRESS PERIOD    2

 DRAWDOWN WILL BE SAVED ON UNIT   52 AT END OF TIME STEP   23, STRESS PERIOD    2
1
  VOLUMETRIC BUDGET FOR ENTIRE MODEL AT END OF TIME STEP   23, STRESS PERIOD   2
  ------------------------------------------------------------------------------

     CUMULATIVE VOLUMES      L**3       RATES FOR THIS TIME STEP      L**3/T
     ------------------                 ------------------------

           IN:                                      IN:
           ---                                      ---
             STORAGE =           0.0000               STORAGE =           0.0000
       CONSTANT HEAD =           0.0000         CONSTANT HEAD =           0.0000
               WELLS =        2300.0000                 WELLS =         100.0000
     HEAD DEP BOUNDS =       27954.7559       HEAD DEP BOUNDS =        1162.6884

            TOTAL IN =       30254.7559              TOTAL IN =        1262.6884

          OUT:                                     OUT:
          ----                                     ----
             STORAGE =        2203.7358               STORAGE =          89.6469
       CONSTANT HEAD =           0.0000         CONSTANT HEAD =           0.0000
               WELLS =           0.0000                 WELLS =           0.0000
     HEAD DEP BOUNDS =       28050.6211       HEAD DEP BOUNDS =        1173.0315

           TOTAL OUT =       30254.3574             TOTAL OUT =        1262.6785

            IN - OUT =           0.3984              IN - OUT =       9.8877E-03

 PERCENT DISCREPANCY =           0.00     PERCENT DISCREPANCY =           0.00






         TIME SUMMARY AT END OF TIME STEP   23 IN STRESS PERIOD    2
                    SECONDS     MINUTES      HOURS       DAYS        YEARS
                    -----------------------------------------------------------
   TIME STEP LENGTH  86400.      1440.0      24.000      1.0000     2.73785E-03
 STRESS PERIOD TIME 1.98720E+06  33120.      552.00      23.000     6.29706E-02
         TOTAL TIME 2.07360E+06  34560.      576.00      24.000     6.57084E-02
1
 
 SOLVING FOR HEAD 

 OUTPUT CONTROL FOR STRESS PERIOD    2   TIME STEP   24
    SAVE HEAD FOR ALL LAYERS
    SAVE DRAWDOWN FOR ALL LAYERS
    SAVE BUDGET
    PRINT HEAD FOR ALL LAYERS
    PRINT BUDGET
 UBDSV1 SAVING "         STORAGE" ON UNIT  53 AT TIME STEP 24, STRESS PERIOD   2
 UBDSV2 SAVING "   CONSTANT HEAD" ON UNIT  53 AT TIME STEP 24, STRESS PERIOD   2
 UBDSV1 SAVING "FLOW RIGHT FACE " ON UNIT  53 AT TIME STEP 24, STRESS PERIOD   2
 UBDSV1 SAVING "FLOW FRONT FACE " ON UNIT  53 AT TIME STEP 24, STRESS PERIOD   2
 UBDSV1 SAVING "FLOW LOWER FACE " ON UNIT  53 AT TIME STEP 24, STRESS PERIOD   2

 SAVING SATURATED THICKNESS AND FLOW TERMS ON UNIT   54 FOR MT3DMS
 BY THE LINK-MT3DMS PACKAGE V7 AT TIME STEP   24, STRESS PERIOD    2

1
              HEAD IN LAYER   1 AT END OF TIME STEP  24 IN STRESS PERIOD    2
  ---------------------------------------------------------------------------

            1           2           3           4           5           6           7           8           9          10
 ........................................................................................................................
   1    9.998       8.936       7.861       6.775       5.678       4.570       3.448       2.314       1.166      1.5202E-03
   2    9.998       8.936       7.862       6.777       5.681       4.573       3.451       2.315       1.167      1.5212E-03
   3    9.998       8.937       7.864       6.782       5.689       4.584       3.459       2.320       1.169      1.5236E-03
   4    9.998       8.938       7.868       6.791       5.708       4.613       3.478       2.329       1.172      1.5282E-03
   5    9.998       8.940       7.873       6.805       5.747       4.698       3.517       2.344       1.177      1.5347E-03
   6    9.998       8.941       7.877       6.819       5.806       4.984       3.578       2.358       1.180      1.5394E-03
   7    9.998       8.940       7.873       6.805       5.747       4.698       3.517       2.344       1.177      1.5347E-03
   8    9.998       8.938       7.868       6.791       5.708       4.613       3.478       2.329       1.172      1.5283E-03
   9    9.998       8.937       7.864       6.782       5.690       4.584       3.459       2.320       1.169      1.5238E-03
  10    9.998       8.937       7.863       6.778       5.683       4.575       3.452       2.316       1.167      1.5218E-03
1
              HEAD IN LAYER   2 AT END OF TIME STEP  24 IN STRESS PERIOD    2
  ---------------------------------------------------------------------------

            1           2           3           4           5           6           7           8           9          10
 ........................................................................................................................
   1    9.998       8.934       7.859       6.774       5.677       4.568       3.446       2.312       1.164      2.5007E-03
   2    9.998       8.935       7.860       6.776       5.680       4.572       3.449       2.314       1.165      2.5025E-03
   3    9.998       8.935       7.863       6.781       5.689       4.583       3.458       2.319       1.167      2.5068E-03
   4    9.998       8.937       7.867       6.791       5.709       4.614       3.478       2.328       1.171      2.5147E-03
   5    9.998       8.939       7.873       6.806       5.749       4.700       3.519       2.344       1.176      2.5258E-03
   6    9.998       8.940       7.876       6.821       5.808       5.029       3.580       2.359       1.180      2.5336E-03
   7    9.998       8.939       7.873       6.806       5.749       4.700       3.519       2.344       1.176      2.5259E-03
   8    9.998       8.937       7.867       6.791       5.709       4.614       3.479       2.329       1.171      2.5149E-03
   9    9.998       8.936       7.863       6.781       5.689       4.584       3.459       2.319       1.167      2.5073E-03
  10    9.998       8.935       7.861       6.777       5.682       4.574       3.451       2.315       1.166      2.5037E-03
1
              HEAD IN LAYER   3 AT END OF TIME STEP  24 IN STRESS PERIOD    2
  ---------------------------------------------------------------------------

            1           2           3           4           5           6           7           8           9          10
 ........................................................................................................................
   1    9.998       8.933       7.858       6.772       5.676       4.567       3.445       2.310       1.163      2.5502E-03
   2    9.998       8.933       7.859       6.774       5.679       4.571       3.448       2.312       1.164      2.5522E-03
   3    9.998       8.934       7.862       6.780       5.688       4.583       3.458       2.318       1.166      2.5570E-03
   4    9.998       8.936       7.866       6.790       5.709       4.615       3.479       2.328       1.170      2.5657E-03
   5    9.998       8.938       7.872       6.807       5.750       4.697       3.520       2.345       1.175      2.5777E-03
   6    9.998       8.939       7.876       6.821       5.806       4.923       3.576       2.359       1.179      2.5860E-03
   7    9.998       8.938       7.872       6.807       5.750       4.697       3.520       2.345       1.175      2.5778E-03
   8    9.998       8.936       7.866       6.791       5.710       4.615       3.479       2.328       1.170      2.5659E-03
   9    9.998       8.934       7.862       6.780       5.689       4.584       3.458       2.318       1.166      2.5576E-03
  10    9.998       8.934       7.860       6.776       5.681       4.573       3.450       2.314       1.164      2.5537E-03
1
              HEAD IN LAYER   4 AT END OF TIME STEP  24 IN STRESS PERIOD    2
  ---------------------------------------------------------------------------

            1           2           3           4           5           6           7           8           9          10
 ........................................................................................................................
   1    9.998       8.932       7.857       6.771       5.675       4.566       3.444       2.309       1.162      2.5502E-03
   2    9.998       8.932       7.858       6.774       5.678       4.570       3.448       2.311       1.163      2.5523E-03
   3    9.998       8.934       7.861       6.779       5.688       4.583       3.457       2.317       1.165      2.5573E-03
   4    9.998       8.935       7.866       6.790       5.710       4.615       3.479       2.328       1.169      2.5665E-03
   5    9.998       8.937       7.872       6.807       5.751       4.693       3.520       2.345       1.175      2.5789E-03
   6    9.998       8.938       7.876       6.822       5.802       4.861       3.573       2.359       1.179      2.5873E-03
   7    9.998       8.937       7.872       6.807       5.751       4.694       3.520       2.345       1.175      2.5790E-03
   8    9.998       8.935       7.866       6.791       5.710       4.615       3.479       2.328       1.169      2.5667E-03
   9    9.998       8.934       7.861       6.780       5.689       4.584       3.458       2.317       1.165      2.5580E-03
  10    9.998       8.933       7.859       6.775       5.681       4.573       3.450       2.313       1.163      2.5539E-03
1
              HEAD IN LAYER   5 AT END OF TIME STEP  24 IN STRESS PERIOD    2
  ---------------------------------------------------------------------------

            1           2           3           4           5           6           7           8           9          10
 ........................................................................................................................
   1    9.998       8.932       7.857       6.771       5.674       4.565       3.444       2.309       1.161      2.5492E-03
   2    9.998       8.932       7.858       6.773       5.678       4.570       3.447       2.311       1.162      2.5513E-03
   3    9.998       8.933       7.861       6.779       5.688       4.583       3.457       2.317       1.165      2.5565E-03
   4    9.998       8.935       7.865       6.790       5.710       4.615       3.479       2.328       1.169      2.5659E-03
   5    9.998       8.937       7.872       6.807       5.751       4.691       3.520       2.345       1.175      2.5785E-03
   6    9.998       8.938       7.876       6.822       5.800       4.833       3.570       2.359       1.179      2.5870E-03
   7    9.998       8.937       7.872       6.807       5.751       4.691       3.521       2.345       1.175      2.5786E-03
   8    9.998       8.935       7.866       6.791       5.710       4.615       3.479       2.328       1.169      2.5661E-03
   9    9.998       8.933       7.861       6.780       5.689       4.584       3.458       2.317       1.165      2.5572E-03
  10    9.998       8.933       7.859       6.775       5.680       4.573       3.450       2.313       1.163      2.5530E-03

 HEAD WILL BE SAVED ON UNIT   51 AT END OF TIME STEP   24, STRESS PERIOD    2

 DRAWDOWN WILL BE SAVED ON UNIT   52 AT END OF TIME STEP   24, STRESS PERIOD    2
1
  VOLUMETRIC BUDGET FOR ENTIRE MODEL AT END OF TIME STEP   24, STRESS PERIOD   2
  ------------------------------------------------------------------------------

     CUMULATIVE VOLUMES      L**3       RATES FOR THIS TIME STEP      L**3/T
     ------------------                 ------------------------

           IN:                                      IN:
           ---                                      ---
             STORAGE =           0.0000               STORAGE =           0.0000
       CONSTANT HEAD =           0.0000         CONSTANT HEAD =           0.0000
               WELLS =        2400.0000                 WELLS =         100.0000
     HEAD DEP BOUNDS =       29117.1758       HEAD DEP BOUNDS =        1162.4194

            TOTAL IN =       31517.1758              TOTAL IN =        1262.4194

          OUT:                                     OUT:
          ----                                     ----
             STORAGE =        2292.6760               STORAGE =          88.9402
       CONSTANT HEAD =           0.0000         CONSTANT HEAD =           0.0000
               WELLS =           0.0000                 WELLS =           0.0000
     HEAD DEP BOUNDS =       29224.1094       HEAD DEP BOUNDS =        1173.4879

           TOTAL OUT =       31516.7852             TOTAL OUT =        1262.4281

            IN - OUT =           0.3906              IN - OUT =      -8.6670E-03

 PERCENT DISCREPANCY =           0.00     PERCENT DISCREPANCY =          -0.00






         TIME SUMMARY AT END OF TIME STEP   24 IN STRESS PERIOD    2
                    SECONDS     MINUTES      HOURS       DAYS        YEARS
                    -----------------------------------------------------------
   TIME STEP LENGTH  86400.      1440.0      24.000      1.0000     2.73785E-03
 STRESS PERIOD TIME 2.07360E+06  34560.      576.00      24.000     6.57084E-02
         TOTAL TIME 2.16000E+06  36000.      600.00      25.000     6.84463E-02
1
 
 SOLVING FOR HEAD 

 OUTPUT CONTROL FOR STRESS PERIOD    2   TIME STEP   25
    SAVE HEAD FOR ALL LAYERS
    SAVE DRAWDOWN FOR ALL LAYERS
    SAVE BUDGET
    PRINT HEAD FOR ALL LAYERS
    PRINT BUDGET
 UBDSV1 SAVING "         STORAGE" ON UNIT  53 AT TIME STEP 25, STRESS PERIOD   2
 UBDSV2 SAVING "   CONSTANT HEAD" ON UNIT  53 AT TIME STEP 25, STRESS PERIOD   2
 UBDSV1 SAVING "FLOW RIGHT FACE " ON UNIT  53 AT TIME STEP 25, STRESS PERIOD   2
 UBDSV1 SAVING "FLOW FRONT FACE " ON UNIT  53 AT TIME STEP 25, STRESS PERIOD   2
 UBDSV1 SAVING "FLOW LOWER FACE " ON UNIT  53 AT TIME STEP 25, STRESS PERIOD   2

 SAVING SATURATED THICKNESS AND FLOW TERMS ON UNIT   54 FOR MT3DMS
 BY THE LINK-MT3DMS PACKAGE V7 AT TIME STEP   25, STRESS PERIOD    2

1
              HEAD IN LAYER   1 AT END OF TIME STEP  25 IN STRESS PERIOD    2
  ---------------------------------------------------------------------------

            1           2           3           4           5           6           7           8           9          10
 ........................................................................................................................
   1    9.998       8.936       7.861       6.776       5.679       4.570       3.448       2.314       1.166      1.5203E-03
   2    9.998       8.936       7.862       6.777       5.682       4.574       3.451       2.316       1.167      1.5214E-03
   3    9.998       8.937       7.864       6.782       5.690       4.585       3.460       2.320       1.169      1.5240E-03
   4    9.998       8.939       7.868       6.792       5.710       4.615       3.479       2.330       1.173      1.5288E-03
   5    9.998       8.940       7.874       6.807       5.749       4.701       3.520       2.345       1.178      1.5357E-03
   6    9.998       8.941       7.878       6.821       5.809       4.989       3.582       2.360       1.181      1.5406E-03
   7    9.998       8.940       7.874       6.807       5.750       4.702       3.520       2.346       1.178      1.5357E-03
   8    9.998       8.939       7.869       6.792       5.710       4.615       3.480       2.330       1.173      1.5289E-03
   9    9.998       8.937       7.865       6.783       5.691       4.586       3.460       2.321       1.169      1.5243E-03
  10    9.998       8.937       7.863       6.779       5.684       4.576       3.453       2.317       1.168      1.5222E-03
1
              HEAD IN LAYER   2 AT END OF TIME STEP  25 IN STRESS PERIOD    2
  ---------------------------------------------------------------------------

            1           2           3           4           5           6           7           8           9          10
 ........................................................................................................................
   1    9.998       8.934       7.859       6.774       5.677       4.568       3.447       2.312       1.164      2.5009E-03
   2    9.998       8.935       7.861       6.776       5.680       4.572       3.450       2.314       1.165      2.5028E-03
   3    9.998       8.936       7.863       6.781       5.690       4.584       3.459       2.319       1.167      2.5074E-03
   4    9.998       8.937       7.868       6.792       5.710       4.616       3.480       2.329       1.171      2.5158E-03
   5    9.998       8.939       7.873       6.808       5.752       4.703       3.522       2.346       1.177      2.5274E-03
   6    9.998       8.940       7.877       6.822       5.811       5.032       3.583       2.361       1.181      2.5355E-03
   7    9.998       8.939       7.873       6.808       5.752       4.703       3.522       2.346       1.177      2.5275E-03
   8    9.998       8.937       7.868       6.792       5.711       4.616       3.480       2.330       1.172      2.5160E-03
   9    9.998       8.936       7.863       6.782       5.690       4.585       3.460       2.320       1.168      2.5080E-03
  10    9.998       8.935       7.861       6.778       5.683       4.575       3.452       2.315       1.166      2.5042E-03
1
              HEAD IN LAYER   3 AT END OF TIME STEP  25 IN STRESS PERIOD    2
  ---------------------------------------------------------------------------

            1           2           3           4           5           6           7           8           9          10
 ........................................................................................................................
   1    9.998       8.933       7.858       6.773       5.676       4.567       3.445       2.310       1.163      2.5505E-03
   2    9.998       8.933       7.859       6.775       5.679       4.571       3.449       2.313       1.164      2.5526E-03
   3    9.998       8.934       7.862       6.781       5.689       4.584       3.459       2.318       1.166      2.5577E-03
   4    9.998       8.936       7.867       6.792       5.711       4.617       3.480       2.329       1.170      2.5669E-03
   5    9.998       8.938       7.873       6.808       5.753       4.700       3.523       2.346       1.176      2.5793E-03
   6    9.998       8.939       7.877       6.823       5.809       4.926       3.579       2.361       1.180      2.5878E-03
   7    9.998       8.938       7.873       6.809       5.753       4.700       3.523       2.346       1.176      2.5794E-03
   8    9.998       8.936       7.867       6.792       5.711       4.617       3.481       2.329       1.170      2.5671E-03
   9    9.998       8.935       7.862       6.781       5.690       4.585       3.459       2.319       1.166      2.5583E-03
  10    9.998       8.934       7.860       6.777       5.682       4.574       3.451       2.314       1.165      2.5542E-03
1
              HEAD IN LAYER   4 AT END OF TIME STEP  25 IN STRESS PERIOD    2
  ---------------------------------------------------------------------------

            1           2           3           4           5           6           7           8           9          10
 ........................................................................................................................
   1    9.998       8.932       7.857       6.772       5.675       4.566       3.444       2.309       1.162      2.5504E-03
   2    9.998       8.933       7.858       6.774       5.679       4.571       3.448       2.312       1.163      2.5527E-03
   3    9.998       8.934       7.861       6.780       5.689       4.584       3.458       2.318       1.165      2.5580E-03
   4    9.998       8.936       7.866       6.791       5.711       4.617       3.481       2.329       1.170      2.5676E-03
   5    9.998       8.938       7.873       6.809       5.753       4.696       3.523       2.346       1.176      2.5805E-03
   6    9.998       8.939       7.877       6.823       5.805       4.865       3.575       2.361       1.180      2.5892E-03
   7    9.998       8.938       7.873       6.809       5.753       4.696       3.523       2.346       1.176      2.5806E-03
   8    9.998       8.936       7.867       6.792       5.712       4.617       3.481       2.329       1.170      2.5679E-03
   9    9.998       8.934       7.862       6.781       5.690       4.585       3.459       2.318       1.166      2.5588E-03
  10    9.998       8.933       7.859       6.776       5.681       4.574       3.451       2.313       1.164      2.5544E-03
1
              HEAD IN LAYER   5 AT END OF TIME STEP  25 IN STRESS PERIOD    2
  ---------------------------------------------------------------------------

            1           2           3           4           5           6           7           8           9          10
 ........................................................................................................................
   1    9.998       8.932       7.857       6.771       5.675       4.566       3.444       2.309       1.161      2.5494E-03
   2    9.998       8.932       7.858       6.774       5.678       4.570       3.448       2.311       1.162      2.5517E-03
   3    9.998       8.933       7.861       6.780       5.689       4.584       3.458       2.317       1.165      2.5572E-03
   4    9.998       8.935       7.866       6.791       5.711       4.617       3.481       2.329       1.169      2.5670E-03
   5    9.998       8.937       7.873       6.809       5.753       4.694       3.523       2.346       1.175      2.5801E-03
   6    9.998       8.939       7.877       6.824       5.803       4.836       3.573       2.361       1.179      2.5889E-03
   7    9.998       8.937       7.873       6.809       5.753       4.694       3.523       2.346       1.175      2.5802E-03
   8    9.998       8.935       7.866       6.792       5.712       4.617       3.481       2.329       1.170      2.5673E-03
   9    9.998       8.934       7.861       6.781       5.690       4.585       3.459       2.318       1.165      2.5580E-03
  10    9.998       8.933       7.859       6.776       5.681       4.573       3.450       2.313       1.163      2.5535E-03

 HEAD WILL BE SAVED ON UNIT   51 AT END OF TIME STEP   25, STRESS PERIOD    2

 DRAWDOWN WILL BE SAVED ON UNIT   52 AT END OF TIME STEP   25, STRESS PERIOD    2
1
  VOLUMETRIC BUDGET FOR ENTIRE MODEL AT END OF TIME STEP   25, STRESS PERIOD   2
  ------------------------------------------------------------------------------

     CUMULATIVE VOLUMES      L**3       RATES FOR THIS TIME STEP      L**3/T
     ------------------                 ------------------------

           IN:                                      IN:
           ---                                      ---
             STORAGE =           0.0000               STORAGE =           0.0000
       CONSTANT HEAD =           0.0000         CONSTANT HEAD =           0.0000
               WELLS =        2500.0000                 WELLS =         100.0000
     HEAD DEP BOUNDS =       30279.3340       HEAD DEP BOUNDS =        1162.1582

            TOTAL IN =       32779.3359              TOTAL IN =        1262.1582

          OUT:                                     OUT:
          ----                                     ----
             STORAGE =        2380.8809               STORAGE =          88.2048
       CONSTANT HEAD =           0.0000         CONSTANT HEAD =           0.0000
               WELLS =           0.0000                 WELLS =           0.0000
     HEAD DEP BOUNDS =       30398.0586       HEAD DEP BOUNDS =        1173.9493

           TOTAL OUT =       32778.9375             TOTAL OUT =        1262.1542

            IN - OUT =           0.3984              IN - OUT =       4.0283E-03

 PERCENT DISCREPANCY =           0.00     PERCENT DISCREPANCY =           0.00






         TIME SUMMARY AT END OF TIME STEP   25 IN STRESS PERIOD    2
                    SECONDS     MINUTES      HOURS       DAYS        YEARS
                    -----------------------------------------------------------
   TIME STEP LENGTH  86400.      1440.0      24.000      1.0000     2.73785E-03
 STRESS PERIOD TIME 2.16000E+06  36000.      600.00      25.000     6.84463E-02
         TOTAL TIME 2.24640E+06  37440.      624.00      26.000     7.11841E-02
1
 
 SOLVING FOR HEAD 

 OUTPUT CONTROL FOR STRESS PERIOD    2   TIME STEP   26
    SAVE HEAD FOR ALL LAYERS
    SAVE DRAWDOWN FOR ALL LAYERS
    SAVE BUDGET
    PRINT HEAD FOR ALL LAYERS
    PRINT BUDGET
 UBDSV1 SAVING "         STORAGE" ON UNIT  53 AT TIME STEP 26, STRESS PERIOD   2
 UBDSV2 SAVING "   CONSTANT HEAD" ON UNIT  53 AT TIME STEP 26, STRESS PERIOD   2
 UBDSV1 SAVING "FLOW RIGHT FACE " ON UNIT  53 AT TIME STEP 26, STRESS PERIOD   2
 UBDSV1 SAVING "FLOW FRONT FACE " ON UNIT  53 AT TIME STEP 26, STRESS PERIOD   2
 UBDSV1 SAVING "FLOW LOWER FACE " ON UNIT  53 AT TIME STEP 26, STRESS PERIOD   2

 SAVING SATURATED THICKNESS AND FLOW TERMS ON UNIT   54 FOR MT3DMS
 BY THE LINK-MT3DMS PACKAGE V7 AT TIME STEP   26, STRESS PERIOD    2

1
              HEAD IN LAYER   1 AT END OF TIME STEP  26 IN STRESS PERIOD    2
  ---------------------------------------------------------------------------

            1           2           3           4           5           6           7           8           9          10
 ........................................................................................................................
   1    9.998       8.936       7.861       6.776       5.679       4.570       3.449       2.314       1.166      1.5204E-03
   2    9.998       8.936       7.862       6.778       5.682       4.574       3.452       2.316       1.167      1.5216E-03
   3    9.998       8.937       7.865       6.783       5.691       4.586       3.461       2.321       1.169      1.5244E-03
   4    9.998       8.939       7.869       6.793       5.711       4.617       3.481       2.331       1.173      1.5295E-03
   5    9.998       8.941       7.875       6.809       5.752       4.705       3.523       2.347       1.178      1.5367E-03
   6    9.998       8.942       7.879       6.823       5.812       4.993       3.585       2.362       1.182      1.5417E-03
   7    9.998       8.941       7.875       6.809       5.752       4.705       3.523       2.347       1.178      1.5367E-03
   8    9.998       8.939       7.869       6.793       5.712       4.617       3.481       2.331       1.173      1.5296E-03
   9    9.998       8.938       7.865       6.783       5.692       4.587       3.461       2.321       1.170      1.5247E-03
  10    9.998       8.937       7.863       6.779       5.684       4.576       3.454       2.317       1.168      1.5224E-03
1
              HEAD IN LAYER   2 AT END OF TIME STEP  26 IN STRESS PERIOD    2
  ---------------------------------------------------------------------------

            1           2           3           4           5           6           7           8           9          10
 ........................................................................................................................
   1    9.998       8.934       7.860       6.774       5.677       4.569       3.447       2.312       1.165      2.5012E-03
   2    9.998       8.935       7.861       6.776       5.681       4.573       3.450       2.314       1.166      2.5032E-03
   3    9.998       8.936       7.863       6.782       5.691       4.585       3.460       2.320       1.168      2.5081E-03
   4    9.998       8.937       7.868       6.793       5.712       4.618       3.482       2.331       1.172      2.5169E-03
   5    9.998       8.939       7.874       6.810       5.754       4.706       3.524       2.347       1.178      2.5290E-03
   6    9.998       8.941       7.878       6.824       5.814       5.036       3.586       2.363       1.181      2.5373E-03
   7    9.998       8.939       7.874       6.810       5.754       4.706       3.524       2.348       1.178      2.5291E-03
   8    9.998       8.938       7.868       6.793       5.712       4.618       3.482       2.331       1.172      2.5172E-03
   9    9.998       8.936       7.864       6.783       5.691       4.586       3.461       2.320       1.168      2.5087E-03
  10    9.998       8.935       7.862       6.778       5.683       4.576       3.453       2.316       1.166      2.5047E-03
1
              HEAD IN LAYER   3 AT END OF TIME STEP  26 IN STRESS PERIOD    2
  ---------------------------------------------------------------------------

            1           2           3           4           5           6           7           8           9          10
 ........................................................................................................................
   1    9.998       8.933       7.858       6.773       5.676       4.567       3.446       2.311       1.163      2.5507E-03
   2    9.998       8.934       7.860       6.775       5.680       4.572       3.449       2.313       1.164      2.5530E-03
   3    9.998       8.935       7.862       6.781       5.690       4.585       3.459       2.319       1.166      2.5584E-03
   4    9.998       8.936       7.867       6.793       5.713       4.618       3.482       2.330       1.171      2.5680E-03
   5    9.998       8.939       7.874       6.810       5.755       4.703       3.525       2.348       1.177      2.5809E-03
   6    9.998       8.940       7.878       6.825       5.811       4.930       3.582       2.363       1.181      2.5897E-03
   7    9.998       8.939       7.874       6.810       5.755       4.703       3.525       2.348       1.177      2.5810E-03
   8    9.998       8.937       7.868       6.793       5.713       4.619       3.482       2.330       1.171      2.5683E-03
   9    9.998       8.935       7.863       6.782       5.691       4.586       3.460       2.320       1.167      2.5591E-03
  10    9.998       8.934       7.861       6.777       5.683       4.575       3.452       2.315       1.165      2.5548E-03
1
              HEAD IN LAYER   4 AT END OF TIME STEP  26 IN STRESS PERIOD    2
  ---------------------------------------------------------------------------

            1           2           3           4           5           6           7           8           9          10
 ........................................................................................................................
   1    9.998       8.932       7.857       6.772       5.675       4.567       3.445       2.310       1.162      2.5507E-03
   2    9.998       8.933       7.859       6.775       5.679       4.571       3.449       2.312       1.163      2.5531E-03
   3    9.998       8.934       7.862       6.781       5.690       4.585       3.459       2.318       1.166      2.5588E-03
   4    9.998       8.936       7.867       6.793       5.713       4.619       3.482       2.330       1.170      2.5688E-03
   5    9.998       8.938       7.874       6.810       5.755       4.699       3.525       2.348       1.176      2.5821E-03
   6    9.998       8.939       7.878       6.825       5.808       4.868       3.578       2.363       1.180      2.5910E-03
   7    9.998       8.938       7.874       6.811       5.756       4.699       3.525       2.348       1.176      2.5822E-03
   8    9.998       8.936       7.867       6.793       5.713       4.619       3.483       2.330       1.170      2.5691E-03
   9    9.998       8.934       7.862       6.782       5.691       4.586       3.460       2.319       1.166      2.5595E-03
  10    9.998       8.933       7.860       6.776       5.682       4.574       3.451       2.314       1.164      2.5550E-03
1
              HEAD IN LAYER   5 AT END OF TIME STEP  26 IN STRESS PERIOD    2
  ---------------------------------------------------------------------------

            1           2           3           4           5           6           7           8           9          10
 ........................................................................................................................
   1    9.998       8.932       7.857       6.772       5.675       4.566       3.444       2.309       1.161      2.5497E-03
   2    9.998       8.932       7.858       6.774       5.679       4.571       3.448       2.312       1.163      2.5522E-03
   3    9.998       8.934       7.861       6.781       5.690       4.585       3.459       2.318       1.165      2.5580E-03
   4    9.998       8.936       7.867       6.793       5.713       4.619       3.482       2.330       1.170      2.5682E-03
   5    9.998       8.938       7.874       6.811       5.755       4.697       3.525       2.348       1.176      2.5817E-03
   6    9.998       8.939       7.878       6.825       5.805       4.839       3.576       2.363       1.180      2.5907E-03
   7    9.998       8.938       7.874       6.811       5.756       4.697       3.525       2.348       1.176      2.5818E-03
   8    9.998       8.936       7.867       6.793       5.713       4.619       3.483       2.330       1.170      2.5685E-03
   9    9.998       8.934       7.862       6.781       5.691       4.586       3.460       2.319       1.166      2.5588E-03
  10    9.998       8.933       7.859       6.776       5.682       4.574       3.451       2.314       1.163      2.5541E-03

 HEAD WILL BE SAVED ON UNIT   51 AT END OF TIME STEP   26, STRESS PERIOD    2

 DRAWDOWN WILL BE SAVED ON UNIT   52 AT END OF TIME STEP   26, STRESS PERIOD    2
1
  VOLUMETRIC BUDGET FOR ENTIRE MODEL AT END OF TIME STEP   26, STRESS PERIOD   2
  ------------------------------------------------------------------------------

     CUMULATIVE VOLUMES      L**3       RATES FOR THIS TIME STEP      L**3/T
     ------------------                 ------------------------

           IN:                                      IN:
           ---                                      ---
             STORAGE =           0.0000               STORAGE =           0.0000
       CONSTANT HEAD =           0.0000         CONSTANT HEAD =           0.0000
               WELLS =        2600.0000                 WELLS =         100.0000
     HEAD DEP BOUNDS =       31441.2168       HEAD DEP BOUNDS =        1161.8837

            TOTAL IN =       34041.2188              TOTAL IN =        1261.8837

          OUT:                                     OUT:
          ----                                     ----
             STORAGE =        2468.3508               STORAGE =          87.4700
       CONSTANT HEAD =           0.0000         CONSTANT HEAD =           0.0000
               WELLS =           0.0000                 WELLS =           0.0000
     HEAD DEP BOUNDS =       31572.4727       HEAD DEP BOUNDS =        1174.4131

           TOTAL OUT =       34040.8242             TOTAL OUT =        1261.8832

            IN - OUT =           0.3945              IN - OUT =       4.8828E-04

 PERCENT DISCREPANCY =           0.00     PERCENT DISCREPANCY =           0.00






         TIME SUMMARY AT END OF TIME STEP   26 IN STRESS PERIOD    2
                    SECONDS     MINUTES      HOURS       DAYS        YEARS
                    -----------------------------------------------------------
   TIME STEP LENGTH  86400.      1440.0      24.000      1.0000     2.73785E-03
 STRESS PERIOD TIME 2.24640E+06  37440.      624.00      26.000     7.11841E-02
         TOTAL TIME 2.33280E+06  38880.      648.00      27.000     7.39220E-02
1
 
 SOLVING FOR HEAD 

 OUTPUT CONTROL FOR STRESS PERIOD    2   TIME STEP   27
    SAVE HEAD FOR ALL LAYERS
    SAVE DRAWDOWN FOR ALL LAYERS
    SAVE BUDGET
    PRINT HEAD FOR ALL LAYERS
    PRINT BUDGET
 UBDSV1 SAVING "         STORAGE" ON UNIT  53 AT TIME STEP 27, STRESS PERIOD   2
 UBDSV2 SAVING "   CONSTANT HEAD" ON UNIT  53 AT TIME STEP 27, STRESS PERIOD   2
 UBDSV1 SAVING "FLOW RIGHT FACE " ON UNIT  53 AT TIME STEP 27, STRESS PERIOD   2
 UBDSV1 SAVING "FLOW FRONT FACE " ON UNIT  53 AT TIME STEP 27, STRESS PERIOD   2
 UBDSV1 SAVING "FLOW LOWER FACE " ON UNIT  53 AT TIME STEP 27, STRESS PERIOD   2

 SAVING SATURATED THICKNESS AND FLOW TERMS ON UNIT   54 FOR MT3DMS
 BY THE LINK-MT3DMS PACKAGE V7 AT TIME STEP   27, STRESS PERIOD    2

1
              HEAD IN LAYER   1 AT END OF TIME STEP  27 IN STRESS PERIOD    2
  ---------------------------------------------------------------------------

            1           2           3           4           5           6           7           8           9          10
 ........................................................................................................................
   1    9.998       8.936       7.861       6.776       5.679       4.571       3.449       2.314       1.166      1.5206E-03
   2    9.998       8.937       7.863       6.778       5.683       4.575       3.452       2.316       1.167      1.5218E-03
   3    9.998       8.938       7.865       6.784       5.692       4.587       3.462       2.322       1.170      1.5248E-03
   4    9.998       8.939       7.870       6.794       5.713       4.619       3.483       2.332       1.174      1.5302E-03
   5    9.998       8.941       7.876       6.810       5.755       4.708       3.525       2.349       1.179      1.5377E-03
   6    9.998       8.942       7.880       6.825       5.815       4.996       3.588       2.364       1.183      1.5430E-03
   7    9.998       8.941       7.876       6.810       5.755       4.708       3.525       2.349       1.179      1.5377E-03
   8    9.998       8.939       7.870       6.794       5.713       4.619       3.483       2.332       1.174      1.5304E-03
   9    9.998       8.938       7.866       6.784       5.693       4.588       3.462       2.322       1.170      1.5252E-03
  10    9.998       8.937       7.863       6.780       5.685       4.577       3.454       2.318       1.168      1.5227E-03
1
              HEAD IN LAYER   2 AT END OF TIME STEP  27 IN STRESS PERIOD    2
  ---------------------------------------------------------------------------

            1           2           3           4           5           6           7           8           9          10
 ........................................................................................................................
   1    9.998       8.934       7.860       6.774       5.678       4.569       3.447       2.312       1.165      2.5014E-03
   2    9.998       8.935       7.861       6.777       5.682       4.574       3.451       2.315       1.166      2.5036E-03
   3    9.998       8.936       7.864       6.783       5.692       4.587       3.461       2.320       1.168      2.5088E-03
   4    9.998       8.938       7.869       6.794       5.714       4.620       3.483       2.332       1.172      2.5181E-03
   5    9.998       8.940       7.875       6.811       5.756       4.709       3.527       2.349       1.178      2.5306E-03
   6    9.998       8.941       7.879       6.826       5.817       5.039       3.589       2.365       1.182      2.5391E-03
   7    9.998       8.940       7.875       6.811       5.757       4.709       3.527       2.349       1.178      2.5307E-03
   8    9.998       8.938       7.869       6.794       5.714       4.620       3.484       2.332       1.173      2.5183E-03
   9    9.998       8.936       7.864       6.783       5.693       4.588       3.462       2.321       1.168      2.5095E-03
  10    9.998       8.935       7.862       6.779       5.684       4.576       3.453       2.316       1.167      2.5053E-03
1
              HEAD IN LAYER   3 AT END OF TIME STEP  27 IN STRESS PERIOD    2
  ---------------------------------------------------------------------------

            1           2           3           4           5           6           7           8           9          10
 ........................................................................................................................
   1    9.998       8.933       7.858       6.773       5.677       4.568       3.446       2.311       1.163      2.5510E-03
   2    9.998       8.934       7.860       6.776       5.681       4.573       3.450       2.313       1.164      2.5534E-03
   3    9.998       8.935       7.863       6.782       5.691       4.586       3.460       2.319       1.167      2.5591E-03
   4    9.998       8.937       7.868       6.794       5.714       4.620       3.484       2.331       1.171      2.5692E-03
   5    9.998       8.939       7.875       6.812       5.757       4.706       3.527       2.349       1.178      2.5825E-03
   6    9.998       8.940       7.879       6.827       5.814       4.933       3.585       2.365       1.182      2.5915E-03
   7    9.998       8.939       7.875       6.812       5.758       4.706       3.527       2.349       1.178      2.5826E-03
   8    9.998       8.937       7.868       6.794       5.715       4.621       3.484       2.332       1.172      2.5695E-03
   9    9.998       8.935       7.863       6.783       5.692       4.587       3.461       2.320       1.167      2.5599E-03
  10    9.998       8.934       7.861       6.778       5.683       4.576       3.453       2.315       1.165      2.5553E-03
1
              HEAD IN LAYER   4 AT END OF TIME STEP  27 IN STRESS PERIOD    2
  ---------------------------------------------------------------------------

            1           2           3           4           5           6           7           8           9          10
 ........................................................................................................................
   1    9.998       8.932       7.858       6.772       5.676       4.567       3.445       2.310       1.162      2.5510E-03
   2    9.998       8.933       7.859       6.775       5.680       4.572       3.449       2.313       1.163      2.5535E-03
   3    9.998       8.934       7.862       6.781       5.691       4.586       3.460       2.319       1.166      2.5595E-03
   4    9.998       8.936       7.868       6.794       5.714       4.620       3.484       2.331       1.171      2.5700E-03
   5    9.998       8.938       7.875       6.812       5.758       4.702       3.527       2.349       1.177      2.5837E-03
   6    9.998       8.940       7.879       6.827       5.810       4.871       3.581       2.365       1.181      2.5928E-03
   7    9.998       8.938       7.875       6.812       5.758       4.702       3.528       2.349       1.177      2.5839E-03
   8    9.998       8.936       7.868       6.794       5.715       4.621       3.484       2.331       1.171      2.5703E-03
   9    9.998       8.934       7.863       6.782       5.692       4.587       3.461       2.320       1.166      2.5604E-03
  10    9.998       8.933       7.860       6.777       5.683       4.575       3.452       2.314       1.164      2.5556E-03
1
              HEAD IN LAYER   5 AT END OF TIME STEP  27 IN STRESS PERIOD    2
  ---------------------------------------------------------------------------

            1           2           3           4           5           6           7           8           9          10
 ........................................................................................................................
   1    9.998       8.932       7.857       6.772       5.675       4.567       3.445       2.309       1.162      2.5500E-03
   2    9.998       8.932       7.859       6.775       5.680       4.572       3.449       2.312       1.163      2.5526E-03
   3    9.998       8.934       7.862       6.781       5.691       4.586       3.460       2.319       1.166      2.5587E-03
   4    9.998       8.936       7.867       6.794       5.715       4.620       3.484       2.331       1.170      2.5694E-03
   5    9.998       8.938       7.875       6.812       5.758       4.699       3.527       2.349       1.177      2.5833E-03
   6    9.998       8.939       7.879       6.827       5.808       4.842       3.578       2.365       1.181      2.5925E-03
   7    9.998       8.938       7.875       6.812       5.758       4.699       3.528       2.349       1.177      2.5835E-03
   8    9.998       8.936       7.868       6.794       5.715       4.621       3.484       2.331       1.171      2.5697E-03
   9    9.998       8.934       7.862       6.782       5.692       4.587       3.461       2.319       1.166      2.5596E-03
  10    9.998       8.933       7.860       6.777       5.683       4.575       3.452       2.314       1.164      2.5547E-03

 HEAD WILL BE SAVED ON UNIT   51 AT END OF TIME STEP   27, STRESS PERIOD    2

 DRAWDOWN WILL BE SAVED ON UNIT   52 AT END OF TIME STEP   27, STRESS PERIOD    2
1
  VOLUMETRIC BUDGET FOR ENTIRE MODEL AT END OF TIME STEP   27, STRESS PERIOD   2
  ------------------------------------------------------------------------------

     CUMULATIVE VOLUMES      L**3       RATES FOR THIS TIME STEP      L**3/T
     ------------------                 ------------------------

           IN:                                      IN:
           ---                                      ---
             STORAGE =           0.0000               STORAGE =           0.0000
       CONSTANT HEAD =           0.0000         CONSTANT HEAD =           0.0000
               WELLS =        2700.0000                 WELLS =         100.0000
     HEAD DEP BOUNDS =       32602.8281       HEAD DEP BOUNDS =        1161.6104

            TOTAL IN =       35302.8281              TOTAL IN =        1261.6104

          OUT:                                     OUT:
          ----                                     ----
             STORAGE =        2555.0803               STORAGE =          86.7295
       CONSTANT HEAD =           0.0000         CONSTANT HEAD =           0.0000
               WELLS =           0.0000                 WELLS =           0.0000
     HEAD DEP BOUNDS =       32747.3535       HEAD DEP BOUNDS =        1174.8809

           TOTAL OUT =       35302.4336             TOTAL OUT =        1261.6104

            IN - OUT =           0.3945              IN - OUT =           0.0000

 PERCENT DISCREPANCY =           0.00     PERCENT DISCREPANCY =           0.00






         TIME SUMMARY AT END OF TIME STEP   27 IN STRESS PERIOD    2
                    SECONDS     MINUTES      HOURS       DAYS        YEARS
                    -----------------------------------------------------------
   TIME STEP LENGTH  86400.      1440.0      24.000      1.0000     2.73785E-03
 STRESS PERIOD TIME 2.33280E+06  38880.      648.00      27.000     7.39220E-02
         TOTAL TIME 2.41920E+06  40320.      672.00      28.000     7.66598E-02
1
 
 SOLVING FOR HEAD 

 OUTPUT CONTROL FOR STRESS PERIOD    2   TIME STEP   28
    SAVE HEAD FOR ALL LAYERS
    SAVE DRAWDOWN FOR ALL LAYERS
    SAVE BUDGET
    PRINT HEAD FOR ALL LAYERS
    PRINT BUDGET
 UBDSV1 SAVING "         STORAGE" ON UNIT  53 AT TIME STEP 28, STRESS PERIOD   2
 UBDSV2 SAVING "   CONSTANT HEAD" ON UNIT  53 AT TIME STEP 28, STRESS PERIOD   2
 UBDSV1 SAVING "FLOW RIGHT FACE " ON UNIT  53 AT TIME STEP 28, STRESS PERIOD   2
 UBDSV1 SAVING "FLOW FRONT FACE " ON UNIT  53 AT TIME STEP 28, STRESS PERIOD   2
 UBDSV1 SAVING "FLOW LOWER FACE " ON UNIT  53 AT TIME STEP 28, STRESS PERIOD   2

 SAVING SATURATED THICKNESS AND FLOW TERMS ON UNIT   54 FOR MT3DMS
 BY THE LINK-MT3DMS PACKAGE V7 AT TIME STEP   28, STRESS PERIOD    2

1
              HEAD IN LAYER   1 AT END OF TIME STEP  28 IN STRESS PERIOD    2
  ---------------------------------------------------------------------------

            1           2           3           4           5           6           7           8           9          10
 ........................................................................................................................
   1    9.998       8.936       7.862       6.776       5.680       4.571       3.449       2.314       1.167      1.5207E-03
   2    9.998       8.937       7.863       6.779       5.683       4.575       3.453       2.317       1.168      1.5221E-03
   3    9.998       8.938       7.866       6.784       5.693       4.588       3.462       2.322       1.170      1.5253E-03
   4    9.998       8.939       7.870       6.795       5.715       4.621       3.484       2.333       1.174      1.5310E-03
   5    9.998       8.941       7.877       6.812       5.757       4.711       3.528       2.350       1.180      1.5387E-03
   6    9.998       8.943       7.881       6.827       5.818       5.000       3.591       2.366       1.184      1.5441E-03
   7    9.998       8.941       7.877       6.812       5.757       4.711       3.528       2.350       1.180      1.5387E-03
   8    9.998       8.940       7.871       6.795       5.715       4.621       3.485       2.333       1.174      1.5311E-03
   9    9.998       8.938       7.866       6.785       5.694       4.589       3.463       2.323       1.170      1.5257E-03
  10    9.998       8.937       7.864       6.780       5.686       4.578       3.455       2.318       1.168      1.5231E-03
1
              HEAD IN LAYER   2 AT END OF TIME STEP  28 IN STRESS PERIOD    2
  ---------------------------------------------------------------------------

            1           2           3           4           5           6           7           8           9          10
 ........................................................................................................................
   1    9.998       8.934       7.860       6.775       5.678       4.569       3.448       2.313       1.165      2.5017E-03
   2    9.998       8.935       7.861       6.777       5.682       4.574       3.451       2.315       1.166      2.5040E-03
   3    9.998       8.936       7.864       6.783       5.692       4.588       3.462       2.321       1.168      2.5095E-03
   4    9.998       8.938       7.869       6.795       5.715       4.622       3.485       2.333       1.173      2.5192E-03
   5    9.998       8.940       7.876       6.813       5.759       4.712       3.529       2.351       1.179      2.5322E-03
   6    9.998       8.941       7.880       6.828       5.820       5.043       3.592       2.366       1.183      2.5409E-03
   7    9.998       8.940       7.876       6.813       5.759       4.712       3.529       2.351       1.179      2.5323E-03
   8    9.998       8.938       7.870       6.795       5.716       4.622       3.485       2.333       1.173      2.5195E-03
   9    9.998       8.936       7.865       6.784       5.694       4.589       3.463       2.322       1.169      2.5102E-03
  10    9.998       8.935       7.862       6.779       5.685       4.577       3.454       2.317       1.167      2.5058E-03
1
              HEAD IN LAYER   3 AT END OF TIME STEP  28 IN STRESS PERIOD    2
  ---------------------------------------------------------------------------

            1           2           3           4           5           6           7           8           9          10
 ........................................................................................................................
   1    9.998       8.933       7.859       6.773       5.677       4.568       3.446       2.311       1.163      2.5513E-03
   2    9.998       8.934       7.860       6.776       5.681       4.573       3.450       2.314       1.164      2.5538E-03
   3    9.998       8.935       7.863       6.783       5.692       4.587       3.461       2.320       1.167      2.5598E-03
   4    9.998       8.937       7.869       6.795       5.716       4.622       3.485       2.332       1.172      2.5703E-03
   5    9.998       8.939       7.876       6.813       5.760       4.708       3.530       2.351       1.178      2.5841E-03
   6    9.998       8.941       7.880       6.829       5.817       4.936       3.588       2.366       1.182      2.5933E-03
   7    9.998       8.939       7.876       6.813       5.760       4.708       3.530       2.351       1.178      2.5843E-03
   8    9.998       8.937       7.869       6.795       5.716       4.623       3.486       2.333       1.172      2.5707E-03
   9    9.998       8.935       7.864       6.784       5.693       4.589       3.463       2.321       1.168      2.5607E-03
  10    9.998       8.934       7.861       6.778       5.684       4.577       3.453       2.316       1.165      2.5559E-03
1
              HEAD IN LAYER   4 AT END OF TIME STEP  28 IN STRESS PERIOD    2
  ---------------------------------------------------------------------------

            1           2           3           4           5           6           7           8           9          10
 ........................................................................................................................
   1    9.998       8.932       7.858       6.773       5.676       4.567       3.445       2.310       1.162      2.5513E-03
   2    9.998       8.933       7.859       6.775       5.680       4.573       3.450       2.313       1.163      2.5540E-03
   3    9.998       8.934       7.863       6.782       5.692       4.587       3.461       2.320       1.166      2.5602E-03
   4    9.998       8.936       7.868       6.795       5.716       4.622       3.485       2.332       1.171      2.5711E-03
   5    9.998       8.939       7.876       6.814       5.760       4.704       3.530       2.351       1.178      2.5853E-03
   6    9.998       8.940       7.880       6.829       5.813       4.874       3.583       2.366       1.182      2.5946E-03
   7    9.998       8.939       7.876       6.814       5.760       4.704       3.530       2.351       1.178      2.5855E-03
   8    9.998       8.937       7.869       6.795       5.717       4.623       3.486       2.332       1.171      2.5715E-03
   9    9.998       8.935       7.863       6.783       5.693       4.589       3.462       2.320       1.167      2.5612E-03
  10    9.998       8.934       7.861       6.778       5.684       4.576       3.453       2.315       1.164      2.5562E-03
1
              HEAD IN LAYER   5 AT END OF TIME STEP  28 IN STRESS PERIOD    2
  ---------------------------------------------------------------------------

            1           2           3           4           5           6           7           8           9          10
 ........................................................................................................................
   1    9.998       8.932       7.857       6.772       5.676       4.567       3.445       2.310       1.162      2.5503E-03
   2    9.998       8.933       7.859       6.775       5.680       4.572       3.449       2.312       1.163      2.5530E-03
   3    9.998       8.934       7.862       6.782       5.692       4.587       3.461       2.319       1.166      2.5594E-03
   4    9.998       8.936       7.868       6.795       5.716       4.622       3.485       2.332       1.171      2.5705E-03
   5    9.998       8.939       7.875       6.814       5.760       4.702       3.530       2.351       1.178      2.5849E-03
   6    9.998       8.940       7.880       6.829       5.810       4.845       3.581       2.366       1.182      2.5943E-03
   7    9.998       8.939       7.876       6.814       5.760       4.702       3.530       2.351       1.178      2.5851E-03
   8    9.998       8.936       7.868       6.795       5.717       4.623       3.486       2.332       1.171      2.5709E-03
   9    9.998       8.934       7.863       6.783       5.693       4.588       3.462       2.320       1.166      2.5604E-03
  10    9.998       8.933       7.860       6.777       5.683       4.576       3.452       2.315       1.164      2.5553E-03

 HEAD WILL BE SAVED ON UNIT   51 AT END OF TIME STEP   28, STRESS PERIOD    2

 DRAWDOWN WILL BE SAVED ON UNIT   52 AT END OF TIME STEP   28, STRESS PERIOD    2
1
  VOLUMETRIC BUDGET FOR ENTIRE MODEL AT END OF TIME STEP   28, STRESS PERIOD   2
  ------------------------------------------------------------------------------

     CUMULATIVE VOLUMES      L**3       RATES FOR THIS TIME STEP      L**3/T
     ------------------                 ------------------------

           IN:                                      IN:
           ---                                      ---
             STORAGE =           0.0000               STORAGE =           0.0000
       CONSTANT HEAD =           0.0000         CONSTANT HEAD =           0.0000
               WELLS =        2800.0000                 WELLS =         100.0000
     HEAD DEP BOUNDS =       33764.1602       HEAD DEP BOUNDS =        1161.3319

            TOTAL IN =       36564.1602              TOTAL IN =        1261.3319

          OUT:                                     OUT:
          ----                                     ----
             STORAGE =        2641.0544               STORAGE =          85.9741
       CONSTANT HEAD =           0.0000         CONSTANT HEAD =           0.0000
               WELLS =           0.0000                 WELLS =           0.0000
     HEAD DEP BOUNDS =       33922.7031       HEAD DEP BOUNDS =        1175.3516

           TOTAL OUT =       36563.7578             TOTAL OUT =        1261.3257

            IN - OUT =           0.4023              IN - OUT =       6.2256E-03

 PERCENT DISCREPANCY =           0.00     PERCENT DISCREPANCY =           0.00






         TIME SUMMARY AT END OF TIME STEP   28 IN STRESS PERIOD    2
                    SECONDS     MINUTES      HOURS       DAYS        YEARS
                    -----------------------------------------------------------
   TIME STEP LENGTH  86400.      1440.0      24.000      1.0000     2.73785E-03
 STRESS PERIOD TIME 2.41920E+06  40320.      672.00      28.000     7.66598E-02
         TOTAL TIME 2.50560E+06  41760.      696.00      29.000     7.93977E-02
1
 
 SOLVING FOR HEAD 

 OUTPUT CONTROL FOR STRESS PERIOD    2   TIME STEP   29
    SAVE HEAD FOR ALL LAYERS
    SAVE DRAWDOWN FOR ALL LAYERS
    SAVE BUDGET
    PRINT HEAD FOR ALL LAYERS
    PRINT BUDGET
 UBDSV1 SAVING "         STORAGE" ON UNIT  53 AT TIME STEP 29, STRESS PERIOD   2
 UBDSV2 SAVING "   CONSTANT HEAD" ON UNIT  53 AT TIME STEP 29, STRESS PERIOD   2
 UBDSV1 SAVING "FLOW RIGHT FACE " ON UNIT  53 AT TIME STEP 29, STRESS PERIOD   2
 UBDSV1 SAVING "FLOW FRONT FACE " ON UNIT  53 AT TIME STEP 29, STRESS PERIOD   2
 UBDSV1 SAVING "FLOW LOWER FACE " ON UNIT  53 AT TIME STEP 29, STRESS PERIOD   2

 SAVING SATURATED THICKNESS AND FLOW TERMS ON UNIT   54 FOR MT3DMS
 BY THE LINK-MT3DMS PACKAGE V7 AT TIME STEP   29, STRESS PERIOD    2

1
              HEAD IN LAYER   1 AT END OF TIME STEP  29 IN STRESS PERIOD    2
  ---------------------------------------------------------------------------

            1           2           3           4           5           6           7           8           9          10
 ........................................................................................................................
   1    9.998       8.936       7.862       6.777       5.680       4.571       3.449       2.315       1.167      1.5209E-03
   2    9.998       8.937       7.863       6.779       5.684       4.576       3.453       2.317       1.168      1.5223E-03
   3    9.998       8.938       7.866       6.785       5.694       4.589       3.463       2.323       1.170      1.5257E-03
   4    9.998       8.940       7.871       6.796       5.716       4.623       3.486       2.334       1.175      1.5316E-03
   5    9.998       8.942       7.877       6.814       5.759       4.714       3.530       2.352       1.181      1.5397E-03
   6    9.998       8.943       7.882       6.829       5.821       5.003       3.594       2.368       1.185      1.5452E-03
   7    9.998       8.942       7.878       6.814       5.760       4.714       3.530       2.352       1.181      1.5397E-03
   8    9.998       8.940       7.871       6.797       5.717       4.623       3.486       2.334       1.175      1.5318E-03
   9    9.998       8.938       7.866       6.786       5.695       4.590       3.464       2.323       1.171      1.5261E-03
  10    9.998       8.937       7.864       6.781       5.686       4.579       3.456       2.319       1.169      1.5234E-03
1
              HEAD IN LAYER   2 AT END OF TIME STEP  29 IN STRESS PERIOD    2
  ---------------------------------------------------------------------------

            1           2           3           4           5           6           7           8           9          10
 ........................................................................................................................
   1    9.998       8.935       7.860       6.775       5.679       4.570       3.448       2.313       1.165      2.5020E-03
   2    9.998       8.935       7.862       6.778       5.683       4.575       3.452       2.315       1.166      2.5044E-03
   3    9.998       8.936       7.865       6.784       5.693       4.589       3.463       2.322       1.169      2.5102E-03
   4    9.998       8.938       7.870       6.796       5.717       4.623       3.486       2.334       1.173      2.5203E-03
   5    9.998       8.941       7.877       6.814       5.761       4.715       3.531       2.352       1.180      2.5337E-03
   6    9.998       8.942       7.881       6.830       5.823       5.046       3.594       2.368       1.184      2.5427E-03
   7    9.998       8.941       7.877       6.814       5.761       4.715       3.532       2.352       1.180      2.5338E-03
   8    9.998       8.938       7.870       6.797       5.717       4.624       3.487       2.334       1.174      2.5207E-03
   9    9.998       8.937       7.865       6.785       5.695       4.590       3.464       2.323       1.169      2.5110E-03
  10    9.998       8.936       7.863       6.780       5.686       4.578       3.455       2.317       1.167      2.5064E-03
1
              HEAD IN LAYER   3 AT END OF TIME STEP  29 IN STRESS PERIOD    2
  ---------------------------------------------------------------------------

            1           2           3           4           5           6           7           8           9          10
 ........................................................................................................................
   1    9.998       8.933       7.859       6.774       5.677       4.569       3.447       2.311       1.163      2.5516E-03
   2    9.998       8.934       7.860       6.777       5.682       4.574       3.451       2.314       1.165      2.5543E-03
   3    9.998       8.935       7.864       6.783       5.693       4.588       3.462       2.321       1.167      2.5606E-03
   4    9.998       8.937       7.869       6.796       5.717       4.624       3.487       2.333       1.172      2.5715E-03
   5    9.998       8.940       7.877       6.815       5.762       4.711       3.532       2.352       1.179      2.5857E-03
   6    9.998       8.941       7.881       6.830       5.819       4.939       3.590       2.368       1.183      2.5951E-03
   7    9.998       8.940       7.877       6.815       5.762       4.711       3.532       2.352       1.179      2.5859E-03
   8    9.998       8.937       7.870       6.796       5.718       4.624       3.487       2.334       1.173      2.5719E-03
   9    9.998       8.936       7.864       6.784       5.694       4.590       3.464       2.322       1.168      2.5615E-03
  10    9.998       8.934       7.862       6.779       5.685       4.577       3.454       2.316       1.166      2.5565E-03
1
              HEAD IN LAYER   4 AT END OF TIME STEP  29 IN STRESS PERIOD    2
  ---------------------------------------------------------------------------

            1           2           3           4           5           6           7           8           9          10
 ........................................................................................................................
   1    9.998       8.932       7.858       6.773       5.677       4.568       3.446       2.310       1.162      2.5516E-03
   2    9.998       8.933       7.859       6.776       5.681       4.573       3.450       2.313       1.164      2.5544E-03
   3    9.998       8.935       7.863       6.783       5.693       4.588       3.462       2.320       1.167      2.5610E-03
   4    9.998       8.937       7.869       6.796       5.718       4.624       3.487       2.333       1.172      2.5723E-03
   5    9.998       8.939       7.876       6.815       5.762       4.707       3.532       2.352       1.178      2.5869E-03
   6    9.998       8.941       7.881       6.830       5.815       4.877       3.586       2.368       1.183      2.5964E-03
   7    9.998       8.939       7.877       6.815       5.762       4.707       3.532       2.352       1.179      2.5871E-03
   8    9.998       8.937       7.869       6.796       5.718       4.625       3.487       2.334       1.172      2.5727E-03
   9    9.998       8.935       7.864       6.784       5.694       4.590       3.463       2.321       1.167      2.5620E-03
  10    9.998       8.934       7.861       6.778       5.684       4.577       3.454       2.316       1.165      2.5568E-03
1
              HEAD IN LAYER   5 AT END OF TIME STEP  29 IN STRESS PERIOD    2
  ---------------------------------------------------------------------------

            1           2           3           4           5           6           7           8           9          10
 ........................................................................................................................
   1    9.998       8.932       7.857       6.772       5.676       4.567       3.445       2.310       1.162      2.5506E-03
   2    9.998       8.933       7.859       6.775       5.681       4.573       3.450       2.313       1.163      2.5535E-03
   3    9.998       8.934       7.863       6.783       5.693       4.588       3.462       2.320       1.166      2.5602E-03
   4    9.998       8.936       7.869       6.796       5.718       4.624       3.487       2.333       1.172      2.5717E-03
   5    9.998       8.939       7.876       6.815       5.762       4.704       3.532       2.352       1.178      2.5865E-03
   6    9.998       8.940       7.881       6.831       5.813       4.848       3.583       2.368       1.183      2.5961E-03
   7    9.998       8.939       7.876       6.815       5.762       4.704       3.532       2.352       1.178      2.5866E-03
   8    9.998       8.937       7.869       6.796       5.718       4.624       3.487       2.333       1.172      2.5721E-03
   9    9.998       8.934       7.863       6.784       5.694       4.590       3.463       2.321       1.167      2.5612E-03
  10    9.998       8.933       7.861       6.778       5.684       4.577       3.453       2.315       1.164      2.5560E-03

 HEAD WILL BE SAVED ON UNIT   51 AT END OF TIME STEP   29, STRESS PERIOD    2

 DRAWDOWN WILL BE SAVED ON UNIT   52 AT END OF TIME STEP   29, STRESS PERIOD    2
1
  VOLUMETRIC BUDGET FOR ENTIRE MODEL AT END OF TIME STEP   29, STRESS PERIOD   2
  ------------------------------------------------------------------------------

     CUMULATIVE VOLUMES      L**3       RATES FOR THIS TIME STEP      L**3/T
     ------------------                 ------------------------

           IN:                                      IN:
           ---                                      ---
             STORAGE =           0.0000               STORAGE =           0.0000
       CONSTANT HEAD =           0.0000         CONSTANT HEAD =           0.0000
               WELLS =        2900.0000                 WELLS =         100.0000
     HEAD DEP BOUNDS =       34925.1953       HEAD DEP BOUNDS =        1161.0342

            TOTAL IN =       37825.1953              TOTAL IN =        1261.0342

          OUT:                                     OUT:
          ----                                     ----
             STORAGE =        2726.2727               STORAGE =          85.2182
       CONSTANT HEAD =           0.0000         CONSTANT HEAD =           0.0000
               WELLS =           0.0000                 WELLS =           0.0000
     HEAD DEP BOUNDS =       35098.5234       HEAD DEP BOUNDS =        1175.8199

           TOTAL OUT =       37824.7969             TOTAL OUT =        1261.0382

            IN - OUT =           0.3984              IN - OUT =      -4.0283E-03

 PERCENT DISCREPANCY =           0.00     PERCENT DISCREPANCY =          -0.00






         TIME SUMMARY AT END OF TIME STEP   29 IN STRESS PERIOD    2
                    SECONDS     MINUTES      HOURS       DAYS        YEARS
                    -----------------------------------------------------------
   TIME STEP LENGTH  86400.      1440.0      24.000      1.0000     2.73785E-03
 STRESS PERIOD TIME 2.50560E+06  41760.      696.00      29.000     7.93977E-02
         TOTAL TIME 2.59200E+06  43200.      720.00      30.000     8.21355E-02
1
 
 SOLVING FOR HEAD 

 OUTPUT CONTROL FOR STRESS PERIOD    2   TIME STEP   30
    SAVE HEAD FOR ALL LAYERS
    SAVE DRAWDOWN FOR ALL LAYERS
    SAVE BUDGET
    PRINT HEAD FOR ALL LAYERS
    PRINT BUDGET
 UBDSV1 SAVING "         STORAGE" ON UNIT  53 AT TIME STEP 30, STRESS PERIOD   2
 UBDSV2 SAVING "   CONSTANT HEAD" ON UNIT  53 AT TIME STEP 30, STRESS PERIOD   2
 UBDSV1 SAVING "FLOW RIGHT FACE " ON UNIT  53 AT TIME STEP 30, STRESS PERIOD   2
 UBDSV1 SAVING "FLOW FRONT FACE " ON UNIT  53 AT TIME STEP 30, STRESS PERIOD   2
 UBDSV1 SAVING "FLOW LOWER FACE " ON UNIT  53 AT TIME STEP 30, STRESS PERIOD   2

 SAVING SATURATED THICKNESS AND FLOW TERMS ON UNIT   54 FOR MT3DMS
 BY THE LINK-MT3DMS PACKAGE V7 AT TIME STEP   30, STRESS PERIOD    2

1
              HEAD IN LAYER   1 AT END OF TIME STEP  30 IN STRESS PERIOD    2
  ---------------------------------------------------------------------------

            1           2           3           4           5           6           7           8           9          10
 ........................................................................................................................
   1    9.998       8.936       7.862       6.777       5.680       4.572       3.450       2.315       1.167      1.5211E-03
   2    9.998       8.937       7.863       6.779       5.684       4.576       3.454       2.317       1.168      1.5226E-03
   3    9.998       8.938       7.866       6.786       5.695       4.590       3.464       2.323       1.171      1.5261E-03
   4    9.998       8.940       7.872       6.797       5.718       4.625       3.488       2.335       1.175      1.5323E-03
   5    9.998       8.942       7.878       6.815       5.762       4.716       3.533       2.353       1.181      1.5407E-03
   6    9.998       8.943       7.883       6.831       5.824       5.006       3.597       2.369       1.186      1.5464E-03
   7    9.998       8.942       7.878       6.815       5.762       4.716       3.533       2.354       1.181      1.5408E-03
   8    9.998       8.940       7.872       6.798       5.718       4.625       3.488       2.336       1.175      1.5325E-03
   9    9.998       8.938       7.867       6.786       5.696       4.591       3.465       2.324       1.171      1.5265E-03
  10    9.998       8.937       7.864       6.781       5.687       4.580       3.456       2.319       1.169      1.5238E-03
1
              HEAD IN LAYER   2 AT END OF TIME STEP  30 IN STRESS PERIOD    2
  ---------------------------------------------------------------------------

            1           2           3           4           5           6           7           8           9          10
 ........................................................................................................................
   1    9.998       8.935       7.860       6.775       5.679       4.570       3.448       2.313       1.165      2.5022E-03
   2    9.998       8.935       7.862       6.778       5.683       4.575       3.453       2.316       1.166      2.5048E-03
   3    9.998       8.937       7.865       6.785       5.694       4.590       3.464       2.322       1.169      2.5109E-03
   4    9.998       8.939       7.871       6.797       5.718       4.625       3.488       2.335       1.174      2.5215E-03
   5    9.998       8.941       7.878       6.816       5.763       4.717       3.534       2.354       1.180      2.5353E-03
   6    9.998       8.942       7.882       6.832       5.825       5.049       3.597       2.370       1.185      2.5445E-03
   7    9.998       8.941       7.878       6.816       5.764       4.717       3.534       2.354       1.181      2.5354E-03
   8    9.998       8.939       7.871       6.798       5.719       4.626       3.489       2.335       1.174      2.5218E-03
   9    9.998       8.937       7.866       6.786       5.696       4.591       3.465       2.323       1.170      2.5118E-03
  10    9.998       8.936       7.863       6.780       5.686       4.579       3.456       2.318       1.167      2.5070E-03
1
              HEAD IN LAYER   3 AT END OF TIME STEP  30 IN STRESS PERIOD    2
  ---------------------------------------------------------------------------

            1           2           3           4           5           6           7           8           9          10
 ........................................................................................................................
   1    9.998       8.933       7.859       6.774       5.678       4.569       3.447       2.312       1.164      2.5519E-03
   2    9.998       8.934       7.861       6.777       5.682       4.574       3.452       2.315       1.165      2.5547E-03
   3    9.998       8.935       7.864       6.784       5.694       4.590       3.463       2.322       1.168      2.5613E-03
   4    9.998       8.938       7.870       6.797       5.719       4.626       3.488       2.335       1.173      2.5727E-03
   5    9.998       8.940       7.878       6.816       5.764       4.713       3.534       2.354       1.180      2.5873E-03
   6    9.998       8.942       7.882       6.832       5.822       4.942       3.593       2.370       1.184      2.5969E-03
   7    9.998       8.940       7.878       6.816       5.764       4.714       3.534       2.354       1.180      2.5874E-03
   8    9.998       8.938       7.870       6.798       5.719       4.626       3.489       2.335       1.173      2.5731E-03
   9    9.998       8.936       7.865       6.785       5.695       4.591       3.465       2.322       1.168      2.5623E-03
  10    9.998       8.935       7.862       6.779       5.686       4.578       3.455       2.317       1.166      2.5571E-03
1
              HEAD IN LAYER   4 AT END OF TIME STEP  30 IN STRESS PERIOD    2
  ---------------------------------------------------------------------------

            1           2           3           4           5           6           7           8           9          10
 ........................................................................................................................
   1    9.998       8.933       7.858       6.773       5.677       4.568       3.446       2.311       1.163      2.5519E-03
   2    9.998       8.933       7.860       6.776       5.682       4.574       3.451       2.314       1.164      2.5549E-03
   3    9.998       8.935       7.864       6.784       5.694       4.589       3.463       2.321       1.167      2.5617E-03
   4    9.998       8.937       7.870       6.797       5.719       4.626       3.488       2.334       1.172      2.5735E-03
   5    9.998       8.940       7.877       6.817       5.764       4.709       3.534       2.354       1.179      2.5885E-03
   6    9.998       8.941       7.882       6.832       5.818       4.879       3.588       2.370       1.184      2.5982E-03
   7    9.998       8.940       7.877       6.817       5.764       4.709       3.534       2.354       1.179      2.5886E-03
   8    9.998       8.937       7.870       6.798       5.720       4.626       3.489       2.335       1.173      2.5739E-03
   9    9.998       8.935       7.864       6.785       5.695       4.591       3.464       2.322       1.168      2.5628E-03
  10    9.998       8.934       7.861       6.779       5.685       4.578       3.454       2.316       1.165      2.5574E-03
1
              HEAD IN LAYER   5 AT END OF TIME STEP  30 IN STRESS PERIOD    2
  ---------------------------------------------------------------------------

            1           2           3           4           5           6           7           8           9          10
 ........................................................................................................................
   1    9.998       8.932       7.858       6.773       5.677       4.568       3.446       2.310       1.162      2.5509E-03
   2    9.998       8.933       7.859       6.776       5.681       4.574       3.450       2.313       1.163      2.5540E-03
   3    9.998       8.934       7.863       6.783       5.694       4.589       3.463       2.321       1.167      2.5610E-03
   4    9.998       8.937       7.870       6.797       5.719       4.626       3.488       2.334       1.172      2.5729E-03
   5    9.998       8.939       7.877       6.817       5.764       4.706       3.534       2.354       1.179      2.5881E-03
   6    9.998       8.941       7.882       6.832       5.815       4.851       3.585       2.369       1.183      2.5978E-03
   7    9.998       8.939       7.877       6.817       5.764       4.707       3.534       2.354       1.179      2.5882E-03
   8    9.998       8.937       7.870       6.798       5.720       4.626       3.489       2.335       1.172      2.5733E-03
   9    9.998       8.935       7.864       6.785       5.695       4.591       3.464       2.322       1.167      2.5621E-03
  10    9.998       8.934       7.861       6.779       5.685       4.578       3.454       2.316       1.165      2.5566E-03

 HEAD WILL BE SAVED ON UNIT   51 AT END OF TIME STEP   30, STRESS PERIOD    2

 DRAWDOWN WILL BE SAVED ON UNIT   52 AT END OF TIME STEP   30, STRESS PERIOD    2
1
  VOLUMETRIC BUDGET FOR ENTIRE MODEL AT END OF TIME STEP   30, STRESS PERIOD   2
  ------------------------------------------------------------------------------

     CUMULATIVE VOLUMES      L**3       RATES FOR THIS TIME STEP      L**3/T
     ------------------                 ------------------------

           IN:                                      IN:
           ---                                      ---
             STORAGE =           0.0000               STORAGE =           0.0000
       CONSTANT HEAD =           0.0000         CONSTANT HEAD =           0.0000
               WELLS =        3000.0000                 WELLS =         100.0000
     HEAD DEP BOUNDS =       36085.9414       HEAD DEP BOUNDS =        1160.7465

            TOTAL IN =       39085.9414              TOTAL IN =        1260.7465

          OUT:                                     OUT:
          ----                                     ----
             STORAGE =        2810.7251               STORAGE =          84.4523
       CONSTANT HEAD =           0.0000         CONSTANT HEAD =           0.0000
               WELLS =           0.0000                 WELLS =           0.0000
     HEAD DEP BOUNDS =       36274.8125       HEAD DEP BOUNDS =        1176.2908

           TOTAL OUT =       39085.5391             TOTAL OUT =        1260.7430

            IN - OUT =           0.4023              IN - OUT =       3.4180E-03

 PERCENT DISCREPANCY =           0.00     PERCENT DISCREPANCY =           0.00






         TIME SUMMARY AT END OF TIME STEP   30 IN STRESS PERIOD    2
                    SECONDS     MINUTES      HOURS       DAYS        YEARS
                    -----------------------------------------------------------
   TIME STEP LENGTH  86400.      1440.0      24.000      1.0000     2.73785E-03
 STRESS PERIOD TIME 2.59200E+06  43200.      720.00      30.000     8.21355E-02
         TOTAL TIME 2.67840E+06  44640.      744.00      31.000     8.48734E-02
1
 
 SOLVING FOR HEAD 

 OUTPUT CONTROL FOR STRESS PERIOD    2   TIME STEP   31
    SAVE HEAD FOR ALL LAYERS
    SAVE DRAWDOWN FOR ALL LAYERS
    SAVE BUDGET
    PRINT HEAD FOR ALL LAYERS
    PRINT BUDGET
 UBDSV1 SAVING "         STORAGE" ON UNIT  53 AT TIME STEP 31, STRESS PERIOD   2
 UBDSV2 SAVING "   CONSTANT HEAD" ON UNIT  53 AT TIME STEP 31, STRESS PERIOD   2
 UBDSV1 SAVING "FLOW RIGHT FACE " ON UNIT  53 AT TIME STEP 31, STRESS PERIOD   2
 UBDSV1 SAVING "FLOW FRONT FACE " ON UNIT  53 AT TIME STEP 31, STRESS PERIOD   2
 UBDSV1 SAVING "FLOW LOWER FACE " ON UNIT  53 AT TIME STEP 31, STRESS PERIOD   2

 SAVING SATURATED THICKNESS AND FLOW TERMS ON UNIT   54 FOR MT3DMS
 BY THE LINK-MT3DMS PACKAGE V7 AT TIME STEP   31, STRESS PERIOD    2

1
              HEAD IN LAYER   1 AT END OF TIME STEP  31 IN STRESS PERIOD    2
  ---------------------------------------------------------------------------

            1           2           3           4           5           6           7           8           9          10
 ........................................................................................................................
   1    9.998       8.936       7.862       6.777       5.681       4.572       3.450       2.315       1.167      1.5212E-03
   2    9.998       8.937       7.864       6.780       5.685       4.577       3.454       2.318       1.168      1.5229E-03
   3    9.998       8.938       7.867       6.786       5.696       4.591       3.465       2.324       1.171      1.5265E-03
   4    9.998       8.940       7.872       6.799       5.719       4.626       3.489       2.336       1.176      1.5331E-03
   5    9.998       8.943       7.879       6.817       5.764       4.719       3.535       2.355       1.182      1.5418E-03
   6    9.998       8.944       7.884       6.832       5.826       5.010       3.599       2.371       1.186      1.5475E-03
   7    9.998       8.943       7.879       6.817       5.764       4.719       3.535       2.355       1.182      1.5418E-03
   8    9.998       8.940       7.873       6.799       5.720       4.627       3.490       2.337       1.176      1.5333E-03
   9    9.998       8.939       7.867       6.787       5.697       4.593       3.466       2.325       1.171      1.5271E-03
  10    9.998       8.938       7.865       6.782       5.688       4.580       3.457       2.320       1.169      1.5242E-03
1
              HEAD IN LAYER   2 AT END OF TIME STEP  31 IN STRESS PERIOD    2
  ---------------------------------------------------------------------------

            1           2           3           4           5           6           7           8           9          10
 ........................................................................................................................
   1    9.998       8.935       7.860       6.776       5.679       4.571       3.449       2.313       1.165      2.5025E-03
   2    9.998       8.935       7.862       6.778       5.684       4.576       3.453       2.316       1.166      2.5053E-03
   3    9.998       8.937       7.866       6.785       5.695       4.591       3.465       2.323       1.169      2.5116E-03
   4    9.998       8.939       7.871       6.798       5.720       4.627       3.490       2.336       1.175      2.5226E-03
   5    9.998       8.941       7.879       6.817       5.766       4.720       3.536       2.355       1.181      2.5369E-03
   6    9.998       8.943       7.883       6.833       5.828       5.052       3.599       2.372       1.186      2.5462E-03
   7    9.998       8.941       7.879       6.818       5.766       4.720       3.536       2.355       1.181      2.5370E-03
   8    9.998       8.939       7.872       6.799       5.721       4.628       3.490       2.336       1.175      2.5230E-03
   9    9.998       8.937       7.866       6.786       5.697       4.592       3.466       2.324       1.170      2.5126E-03
  10    9.998       8.936       7.863       6.781       5.687       4.580       3.456       2.318       1.168      2.5076E-03
1
              HEAD IN LAYER   3 AT END OF TIME STEP  31 IN STRESS PERIOD    2
  ---------------------------------------------------------------------------

            1           2           3           4           5           6           7           8           9          10
 ........................................................................................................................
   1    9.998       8.933       7.859       6.774       5.678       4.569       3.447       2.312       1.164      2.5522E-03
   2    9.998       8.934       7.861       6.777       5.683       4.575       3.452       2.315       1.165      2.5552E-03
   3    9.998       8.936       7.865       6.785       5.695       4.591       3.464       2.322       1.168      2.5621E-03
   4    9.998       8.938       7.871       6.798       5.720       4.627       3.490       2.336       1.174      2.5738E-03
   5    9.998       8.941       7.878       6.818       5.766       4.716       3.536       2.355       1.180      2.5889E-03
   6    9.998       8.942       7.883       6.834       5.824       4.944       3.595       2.371       1.185      2.5986E-03
   7    9.998       8.941       7.879       6.818       5.766       4.716       3.536       2.355       1.180      2.5890E-03
   8    9.998       8.938       7.871       6.799       5.721       4.628       3.490       2.336       1.174      2.5743E-03
   9    9.998       8.936       7.865       6.786       5.697       4.592       3.466       2.323       1.169      2.5632E-03
  10    9.998       8.935       7.862       6.780       5.686       4.579       3.456       2.317       1.166      2.5578E-03
1
              HEAD IN LAYER   4 AT END OF TIME STEP  31 IN STRESS PERIOD    2
  ---------------------------------------------------------------------------

            1           2           3           4           5           6           7           8           9          10
 ........................................................................................................................
   1    9.998       8.933       7.858       6.773       5.677       4.569       3.447       2.311       1.163      2.5523E-03
   2    9.998       8.933       7.860       6.777       5.682       4.575       3.451       2.314       1.164      2.5554E-03
   3    9.998       8.935       7.864       6.784       5.695       4.590       3.464       2.322       1.167      2.5625E-03
   4    9.998       8.937       7.870       6.798       5.721       4.627       3.490       2.335       1.173      2.5746E-03
   5    9.998       8.940       7.878       6.818       5.766       4.711       3.536       2.355       1.180      2.5900E-03
   6    9.998       8.941       7.883       6.834       5.820       4.882       3.590       2.371       1.184      2.5999E-03
   7    9.998       8.940       7.878       6.818       5.766       4.712       3.536       2.355       1.180      2.5902E-03
   8    9.998       8.938       7.871       6.799       5.721       4.628       3.491       2.336       1.173      2.5751E-03
   9    9.998       8.935       7.865       6.786       5.696       4.592       3.465       2.323       1.168      2.5637E-03
  10    9.998       8.934       7.862       6.779       5.686       4.579       3.455       2.317       1.165      2.5581E-03
1
              HEAD IN LAYER   5 AT END OF TIME STEP  31 IN STRESS PERIOD    2
  ---------------------------------------------------------------------------

            1           2           3           4           5           6           7           8           9          10
 ........................................................................................................................
   1    9.998       8.932       7.858       6.773       5.677       4.568       3.446       2.311       1.162      2.5513E-03
   2    9.998       8.933       7.860       6.776       5.682       4.574       3.451       2.314       1.164      2.5545E-03
   3    9.998       8.935       7.864       6.784       5.695       4.590       3.464       2.321       1.167      2.5617E-03
   4    9.998       8.937       7.870       6.798       5.721       4.627       3.490       2.335       1.173      2.5740E-03
   5    9.998       8.940       7.878       6.818       5.766       4.709       3.536       2.355       1.180      2.5896E-03
   6    9.998       8.941       7.883       6.834       5.817       4.853       3.588       2.371       1.184      2.5995E-03
   7    9.998       8.940       7.878       6.818       5.766       4.709       3.536       2.355       1.180      2.5898E-03
   8    9.998       8.937       7.871       6.799       5.721       4.628       3.491       2.336       1.173      2.5745E-03
   9    9.998       8.935       7.864       6.785       5.696       4.592       3.465       2.322       1.168      2.5630E-03
  10    9.998       8.934       7.861       6.779       5.686       4.579       3.455       2.316       1.165      2.5573E-03

 HEAD WILL BE SAVED ON UNIT   51 AT END OF TIME STEP   31, STRESS PERIOD    2

 DRAWDOWN WILL BE SAVED ON UNIT   52 AT END OF TIME STEP   31, STRESS PERIOD    2
1
  VOLUMETRIC BUDGET FOR ENTIRE MODEL AT END OF TIME STEP   31, STRESS PERIOD   2
  ------------------------------------------------------------------------------

     CUMULATIVE VOLUMES      L**3       RATES FOR THIS TIME STEP      L**3/T
     ------------------                 ------------------------

           IN:                                      IN:
           ---                                      ---
             STORAGE =           0.0000               STORAGE =           0.0000
       CONSTANT HEAD =           0.0000         CONSTANT HEAD =           0.0000
               WELLS =        3100.0000                 WELLS =         100.0000
     HEAD DEP BOUNDS =       37246.3945       HEAD DEP BOUNDS =        1160.4547

            TOTAL IN =       40346.3945              TOTAL IN =        1260.4547

          OUT:                                     OUT:
          ----                                     ----
             STORAGE =        2894.4106               STORAGE =          83.6856
       CONSTANT HEAD =           0.0000         CONSTANT HEAD =           0.0000
               WELLS =           0.0000                 WELLS =           0.0000
     HEAD DEP BOUNDS =       37451.5781       HEAD DEP BOUNDS =        1176.7645

           TOTAL OUT =       40345.9883             TOTAL OUT =        1260.4502

            IN - OUT =           0.4062              IN - OUT =       4.5166E-03

 PERCENT DISCREPANCY =           0.00     PERCENT DISCREPANCY =           0.00






         TIME SUMMARY AT END OF TIME STEP   31 IN STRESS PERIOD    2
                    SECONDS     MINUTES      HOURS       DAYS        YEARS
                    -----------------------------------------------------------
   TIME STEP LENGTH  86400.      1440.0      24.000      1.0000     2.73785E-03
 STRESS PERIOD TIME 2.67840E+06  44640.      744.00      31.000     8.48734E-02
         TOTAL TIME 2.76480E+06  46080.      768.00      32.000     8.76112E-02
1
 
 SOLVING FOR HEAD 

 OUTPUT CONTROL FOR STRESS PERIOD    2   TIME STEP   32
    SAVE HEAD FOR ALL LAYERS
    SAVE DRAWDOWN FOR ALL LAYERS
    SAVE BUDGET
    PRINT HEAD FOR ALL LAYERS
    PRINT BUDGET
 UBDSV1 SAVING "         STORAGE" ON UNIT  53 AT TIME STEP 32, STRESS PERIOD   2
 UBDSV2 SAVING "   CONSTANT HEAD" ON UNIT  53 AT TIME STEP 32, STRESS PERIOD   2
 UBDSV1 SAVING "FLOW RIGHT FACE " ON UNIT  53 AT TIME STEP 32, STRESS PERIOD   2
 UBDSV1 SAVING "FLOW FRONT FACE " ON UNIT  53 AT TIME STEP 32, STRESS PERIOD   2
 UBDSV1 SAVING "FLOW LOWER FACE " ON UNIT  53 AT TIME STEP 32, STRESS PERIOD   2

 SAVING SATURATED THICKNESS AND FLOW TERMS ON UNIT   54 FOR MT3DMS
 BY THE LINK-MT3DMS PACKAGE V7 AT TIME STEP   32, STRESS PERIOD    2

1
              HEAD IN LAYER   1 AT END OF TIME STEP  32 IN STRESS PERIOD    2
  ---------------------------------------------------------------------------

            1           2           3           4           5           6           7           8           9          10
 ........................................................................................................................
   1    9.998       8.937       7.862       6.777       5.681       4.572       3.450       2.315       1.167      1.5214E-03
   2    9.998       8.937       7.864       6.780       5.685       4.578       3.455       2.318       1.168      1.5231E-03
   3    9.998       8.938       7.867       6.787       5.697       4.592       3.466       2.325       1.171      1.5270E-03
   4    9.998       8.941       7.873       6.800       5.721       4.628       3.491       2.337       1.176      1.5338E-03
   5    9.998       8.943       7.880       6.818       5.766       4.722       3.537       2.357       1.183      1.5427E-03
   6    9.998       8.944       7.885       6.834       5.829       5.013       3.602       2.373       1.187      1.5486E-03
   7    9.998       8.943       7.880       6.818       5.766       4.722       3.537       2.357       1.183      1.5428E-03
   8    9.998       8.941       7.873       6.800       5.722       4.629       3.491       2.338       1.176      1.5340E-03
   9    9.998       8.939       7.868       6.788       5.698       4.594       3.468       2.326       1.172      1.5275E-03
  10    9.998       8.938       7.865       6.782       5.689       4.581       3.458       2.320       1.169      1.5245E-03
1
              HEAD IN LAYER   2 AT END OF TIME STEP  32 IN STRESS PERIOD    2
  ---------------------------------------------------------------------------

            1           2           3           4           5           6           7           8           9          10
 ........................................................................................................................
   1    9.998       8.935       7.861       6.776       5.680       4.571       3.449       2.314       1.165      2.5028E-03
   2    9.998       8.935       7.862       6.779       5.684       4.577       3.454       2.317       1.167      2.5057E-03
   3    9.998       8.937       7.866       6.786       5.696       4.592       3.466       2.324       1.170      2.5124E-03
   4    9.998       8.939       7.872       6.800       5.722       4.629       3.491       2.337       1.175      2.5237E-03
   5    9.998       8.942       7.880       6.819       5.768       4.722       3.538       2.357       1.182      2.5384E-03
   6    9.998       8.943       7.884       6.835       5.830       5.055       3.602       2.373       1.186      2.5480E-03
   7    9.998       8.942       7.880       6.819       5.768       4.722       3.538       2.357       1.182      2.5385E-03
   8    9.998       8.939       7.872       6.800       5.722       4.629       3.492       2.337       1.175      2.5242E-03
   9    9.998       8.937       7.867       6.787       5.698       4.594       3.467       2.325       1.170      2.5134E-03
  10    9.998       8.936       7.864       6.781       5.688       4.581       3.457       2.319       1.168      2.5082E-03
1
              HEAD IN LAYER   3 AT END OF TIME STEP  32 IN STRESS PERIOD    2
  ---------------------------------------------------------------------------

            1           2           3           4           5           6           7           8           9          10
 ........................................................................................................................
   1    9.998       8.934       7.859       6.775       5.679       4.570       3.448       2.312       1.164      2.5526E-03
   2    9.998       8.934       7.861       6.778       5.683       4.576       3.453       2.315       1.165      2.5557E-03
   3    9.998       8.936       7.865       6.786       5.696       4.592       3.465       2.323       1.169      2.5628E-03
   4    9.998       8.938       7.872       6.799       5.722       4.629       3.491       2.337       1.174      2.5750E-03
   5    9.998       8.941       7.879       6.819       5.768       4.718       3.538       2.357       1.181      2.5904E-03
   6    9.998       8.942       7.884       6.835       5.826       4.947       3.597       2.373       1.186      2.6003E-03
   7    9.998       8.941       7.879       6.819       5.768       4.718       3.538       2.357       1.181      2.5906E-03
   8    9.998       8.938       7.872       6.800       5.723       4.630       3.492       2.337       1.174      2.5755E-03
   9    9.998       8.936       7.866       6.787       5.698       4.593       3.467       2.324       1.169      2.5640E-03
  10    9.998       8.935       7.863       6.781       5.687       4.580       3.456       2.318       1.167      2.5584E-03
1
              HEAD IN LAYER   4 AT END OF TIME STEP  32 IN STRESS PERIOD    2
  ---------------------------------------------------------------------------

            1           2           3           4           5           6           7           8           9          10
 ........................................................................................................................
   1    9.998       8.933       7.859       6.774       5.678       4.569       3.447       2.311       1.163      2.5526E-03
   2    9.998       8.934       7.860       6.777       5.683       4.575       3.452       2.315       1.164      2.5558E-03
   3    9.998       8.935       7.864       6.785       5.696       4.591       3.465       2.322       1.168      2.5633E-03
   4    9.998       8.938       7.871       6.799       5.722       4.629       3.491       2.336       1.173      2.5758E-03
   5    9.998       8.940       7.879       6.820       5.768       4.714       3.538       2.357       1.181      2.5916E-03
   6    9.998       8.942       7.884       6.835       5.822       4.884       3.593       2.373       1.185      2.6016E-03
   7    9.998       8.941       7.879       6.820       5.768       4.714       3.538       2.357       1.181      2.5917E-03
   8    9.998       8.938       7.871       6.800       5.723       4.630       3.492       2.337       1.174      2.5763E-03
   9    9.998       8.936       7.865       6.786       5.697       4.593       3.467       2.323       1.168      2.5645E-03
  10    9.998       8.934       7.862       6.780       5.687       4.580       3.456       2.317       1.166      2.5587E-03
1
              HEAD IN LAYER   5 AT END OF TIME STEP  32 IN STRESS PERIOD    2
  ---------------------------------------------------------------------------

            1           2           3           4           5           6           7           8           9          10
 ........................................................................................................................
   1    9.998       8.932       7.858       6.773       5.677       4.569       3.447       2.311       1.162      2.5516E-03
   2    9.998       8.933       7.860       6.777       5.683       4.575       3.452       2.314       1.164      2.5549E-03
   3    9.998       8.935       7.864       6.785       5.696       4.591       3.465       2.322       1.167      2.5625E-03
   4    9.998       8.937       7.871       6.799       5.722       4.629       3.491       2.336       1.173      2.5752E-03
   5    9.998       8.940       7.879       6.820       5.768       4.711       3.538       2.357       1.180      2.5911E-03
   6    9.998       8.942       7.884       6.835       5.820       4.856       3.590       2.373       1.185      2.6012E-03
   7    9.998       8.940       7.879       6.820       5.768       4.711       3.538       2.357       1.180      2.5913E-03
   8    9.998       8.938       7.871       6.800       5.723       4.630       3.492       2.337       1.173      2.5757E-03
   9    9.998       8.935       7.865       6.786       5.697       4.593       3.466       2.323       1.168      2.5638E-03
  10    9.998       8.934       7.862       6.780       5.687       4.579       3.456       2.317       1.165      2.5579E-03

 HEAD WILL BE SAVED ON UNIT   51 AT END OF TIME STEP   32, STRESS PERIOD    2

 DRAWDOWN WILL BE SAVED ON UNIT   52 AT END OF TIME STEP   32, STRESS PERIOD    2
1
  VOLUMETRIC BUDGET FOR ENTIRE MODEL AT END OF TIME STEP   32, STRESS PERIOD   2
  ------------------------------------------------------------------------------

     CUMULATIVE VOLUMES      L**3       RATES FOR THIS TIME STEP      L**3/T
     ------------------                 ------------------------

           IN:                                      IN:
           ---                                      ---
             STORAGE =           0.0000               STORAGE =           0.0000
       CONSTANT HEAD =           0.0000         CONSTANT HEAD =           0.0000
               WELLS =        3200.0000                 WELLS =         100.0000
     HEAD DEP BOUNDS =       38406.5547       HEAD DEP BOUNDS =        1160.1594

            TOTAL IN =       41606.5547              TOTAL IN =        1260.1594

          OUT:                                     OUT:
          ----                                     ----
             STORAGE =        2977.3203               STORAGE =          82.9096
       CONSTANT HEAD =           0.0000         CONSTANT HEAD =           0.0000
               WELLS =           0.0000                 WELLS =           0.0000
     HEAD DEP BOUNDS =       38628.8125       HEAD DEP BOUNDS =        1177.2363

           TOTAL OUT =       41606.1328             TOTAL OUT =        1260.1459

            IN - OUT =           0.4219              IN - OUT =       1.3550E-02

 PERCENT DISCREPANCY =           0.00     PERCENT DISCREPANCY =           0.00






         TIME SUMMARY AT END OF TIME STEP   32 IN STRESS PERIOD    2
                    SECONDS     MINUTES      HOURS       DAYS        YEARS
                    -----------------------------------------------------------
   TIME STEP LENGTH  86400.      1440.0      24.000      1.0000     2.73785E-03
 STRESS PERIOD TIME 2.76480E+06  46080.      768.00      32.000     8.76112E-02
         TOTAL TIME 2.85120E+06  47520.      792.00      33.000     9.03491E-02
1
 
 SOLVING FOR HEAD 

 OUTPUT CONTROL FOR STRESS PERIOD    2   TIME STEP   33
    SAVE HEAD FOR ALL LAYERS
    SAVE DRAWDOWN FOR ALL LAYERS
    SAVE BUDGET
    PRINT HEAD FOR ALL LAYERS
    PRINT BUDGET
 UBDSV1 SAVING "         STORAGE" ON UNIT  53 AT TIME STEP 33, STRESS PERIOD   2
 UBDSV2 SAVING "   CONSTANT HEAD" ON UNIT  53 AT TIME STEP 33, STRESS PERIOD   2
 UBDSV1 SAVING "FLOW RIGHT FACE " ON UNIT  53 AT TIME STEP 33, STRESS PERIOD   2
 UBDSV1 SAVING "FLOW FRONT FACE " ON UNIT  53 AT TIME STEP 33, STRESS PERIOD   2
 UBDSV1 SAVING "FLOW LOWER FACE " ON UNIT  53 AT TIME STEP 33, STRESS PERIOD   2

 SAVING SATURATED THICKNESS AND FLOW TERMS ON UNIT   54 FOR MT3DMS
 BY THE LINK-MT3DMS PACKAGE V7 AT TIME STEP   33, STRESS PERIOD    2

1
              HEAD IN LAYER   1 AT END OF TIME STEP  33 IN STRESS PERIOD    2
  ---------------------------------------------------------------------------

            1           2           3           4           5           6           7           8           9          10
 ........................................................................................................................
   1    9.998       8.937       7.863       6.778       5.681       4.573       3.451       2.316       1.167      1.5216E-03
   2    9.998       8.937       7.864       6.781       5.686       4.578       3.455       2.319       1.169      1.5234E-03
   3    9.998       8.939       7.868       6.788       5.698       4.593       3.467       2.325       1.172      1.5274E-03
   4    9.998       8.941       7.874       6.801       5.723       4.630       3.492       2.339       1.177      1.5345E-03
   5    9.998       8.943       7.881       6.820       5.768       4.724       3.539       2.358       1.184      1.5437E-03
   6    9.998       8.945       7.886       6.836       5.831       5.015       3.604       2.375       1.188      1.5497E-03
   7    9.998       8.943       7.881       6.820       5.769       4.724       3.539       2.358       1.184      1.5438E-03
   8    9.998       8.941       7.874       6.801       5.723       4.631       3.493       2.339       1.177      1.5348E-03
   9    9.998       8.939       7.868       6.789       5.699       4.595       3.469       2.326       1.172      1.5281E-03
  10    9.998       8.938       7.866       6.783       5.689       4.582       3.459       2.321       1.170      1.5250E-03
1
              HEAD IN LAYER   2 AT END OF TIME STEP  33 IN STRESS PERIOD    2
  ---------------------------------------------------------------------------

            1           2           3           4           5           6           7           8           9          10
 ........................................................................................................................
   1    9.998       8.935       7.861       6.776       5.680       4.571       3.449       2.314       1.166      2.5032E-03
   2    9.998       8.936       7.863       6.779       5.685       4.577       3.454       2.317       1.167      2.5062E-03
   3    9.998       8.937       7.867       6.787       5.697       4.593       3.467       2.324       1.170      2.5131E-03
   4    9.998       8.940       7.873       6.801       5.723       4.630       3.493       2.338       1.176      2.5249E-03
   5    9.998       8.942       7.881       6.820       5.770       4.724       3.540       2.358       1.183      2.5399E-03
   6    9.998       8.944       7.885       6.837       5.832       5.057       3.604       2.375       1.187      2.5497E-03
   7    9.998       8.942       7.881       6.821       5.770       4.725       3.540       2.358       1.183      2.5401E-03
   8    9.998       8.940       7.873       6.801       5.724       4.631       3.493       2.339       1.176      2.5254E-03
   9    9.998       8.938       7.867       6.788       5.699       4.595       3.468       2.326       1.171      2.5143E-03
  10    9.998       8.936       7.864       6.782       5.689       4.581       3.458       2.320       1.168      2.5088E-03
1
              HEAD IN LAYER   3 AT END OF TIME STEP  33 IN STRESS PERIOD    2
  ---------------------------------------------------------------------------

            1           2           3           4           5           6           7           8           9          10
 ........................................................................................................................
   1    9.998       8.934       7.860       6.775       5.679       4.570       3.448       2.313       1.164      2.5529E-03
   2    9.998       8.934       7.861       6.778       5.684       4.576       3.453       2.316       1.165      2.5562E-03
   3    9.998       8.936       7.866       6.786       5.697       4.593       3.466       2.324       1.169      2.5636E-03
   4    9.998       8.939       7.872       6.801       5.723       4.631       3.493       2.338       1.175      2.5761E-03
   5    9.998       8.941       7.880       6.821       5.770       4.720       3.540       2.358       1.182      2.5919E-03
   6    9.998       8.943       7.885       6.837       5.829       4.950       3.600       2.375       1.186      2.6020E-03
   7    9.998       8.941       7.880       6.821       5.770       4.721       3.540       2.358       1.182      2.5921E-03
   8    9.998       8.939       7.873       6.801       5.724       4.631       3.493       2.338       1.175      2.5767E-03
   9    9.998       8.936       7.866       6.788       5.699       4.595       3.468       2.325       1.169      2.5649E-03
  10    9.998       8.935       7.863       6.781       5.688       4.581       3.457       2.319       1.167      2.5591E-03
1
              HEAD IN LAYER   4 AT END OF TIME STEP  33 IN STRESS PERIOD    2
  ---------------------------------------------------------------------------

            1           2           3           4           5           6           7           8           9          10
 ........................................................................................................................
   1    9.998       8.933       7.859       6.774       5.678       4.570       3.447       2.312       1.163      2.5529E-03
   2    9.998       8.934       7.861       6.778       5.683       4.576       3.453       2.315       1.165      2.5563E-03
   3    9.998       8.935       7.865       6.786       5.697       4.593       3.466       2.323       1.168      2.5640E-03
   4    9.998       8.938       7.872       6.800       5.724       4.631       3.493       2.337       1.174      2.5769E-03
   5    9.998       8.941       7.880       6.821       5.770       4.716       3.540       2.358       1.181      2.5931E-03
   6    9.998       8.942       7.885       6.837       5.824       4.887       3.595       2.374       1.186      2.6033E-03
   7    9.998       8.941       7.880       6.821       5.770       4.716       3.540       2.358       1.181      2.5933E-03
   8    9.998       8.938       7.872       6.801       5.724       4.631       3.494       2.338       1.174      2.5775E-03
   9    9.998       8.936       7.866       6.787       5.699       4.594       3.468       2.324       1.169      2.5654E-03
  10    9.998       8.935       7.863       6.781       5.688       4.581       3.457       2.318       1.166      2.5594E-03
1
              HEAD IN LAYER   5 AT END OF TIME STEP  33 IN STRESS PERIOD    2
  ---------------------------------------------------------------------------

            1           2           3           4           5           6           7           8           9          10
 ........................................................................................................................
   1    9.998       8.932       7.858       6.774       5.678       4.569       3.447       2.311       1.163      2.5520E-03
   2    9.998       8.933       7.860       6.777       5.683       4.576       3.452       2.315       1.164      2.5554E-03
   3    9.998       8.935       7.865       6.786       5.697       4.592       3.466       2.323       1.168      2.5633E-03
   4    9.998       8.938       7.872       6.800       5.724       4.631       3.493       2.337       1.174      2.5763E-03
   5    9.998       8.941       7.880       6.821       5.770       4.713       3.540       2.358       1.181      2.5926E-03
   6    9.998       8.942       7.885       6.837       5.822       4.858       3.592       2.374       1.186      2.6028E-03
   7    9.998       8.941       7.880       6.821       5.770       4.713       3.540       2.358       1.181      2.5928E-03
   8    9.998       8.938       7.872       6.801       5.724       4.631       3.494       2.338       1.174      2.5769E-03
   9    9.998       8.935       7.866       6.787       5.698       4.594       3.467       2.324       1.168      2.5647E-03
  10    9.998       8.934       7.862       6.780       5.687       4.580       3.456       2.318       1.166      2.5586E-03

 HEAD WILL BE SAVED ON UNIT   51 AT END OF TIME STEP   33, STRESS PERIOD    2

 DRAWDOWN WILL BE SAVED ON UNIT   52 AT END OF TIME STEP   33, STRESS PERIOD    2
1
  VOLUMETRIC BUDGET FOR ENTIRE MODEL AT END OF TIME STEP   33, STRESS PERIOD   2
  ------------------------------------------------------------------------------

     CUMULATIVE VOLUMES      L**3       RATES FOR THIS TIME STEP      L**3/T
     ------------------                 ------------------------

           IN:                                      IN:
           ---                                      ---
             STORAGE =           0.0000               STORAGE =           0.0000
       CONSTANT HEAD =           0.0000         CONSTANT HEAD =           0.0000
               WELLS =        3300.0000                 WELLS =         100.0000
     HEAD DEP BOUNDS =       39566.4062       HEAD DEP BOUNDS =        1159.8534

            TOTAL IN =       42866.4062              TOTAL IN =        1259.8534

          OUT:                                     OUT:
          ----                                     ----
             STORAGE =        3059.4636               STORAGE =          82.1434
       CONSTANT HEAD =           0.0000         CONSTANT HEAD =           0.0000
               WELLS =           0.0000                 WELLS =           0.0000
     HEAD DEP BOUNDS =       39806.5195       HEAD DEP BOUNDS =        1177.7065

           TOTAL OUT =       42865.9844             TOTAL OUT =        1259.8500

            IN - OUT =           0.4219              IN - OUT =       3.4180E-03

 PERCENT DISCREPANCY =           0.00     PERCENT DISCREPANCY =           0.00






         TIME SUMMARY AT END OF TIME STEP   33 IN STRESS PERIOD    2
                    SECONDS     MINUTES      HOURS       DAYS        YEARS
                    -----------------------------------------------------------
   TIME STEP LENGTH  86400.      1440.0      24.000      1.0000     2.73785E-03
 STRESS PERIOD TIME 2.85120E+06  47520.      792.00      33.000     9.03491E-02
         TOTAL TIME 2.93760E+06  48960.      816.00      34.000     9.30869E-02
1
 
 SOLVING FOR HEAD 

 OUTPUT CONTROL FOR STRESS PERIOD    2   TIME STEP   34
    SAVE HEAD FOR ALL LAYERS
    SAVE DRAWDOWN FOR ALL LAYERS
    SAVE BUDGET
    PRINT HEAD FOR ALL LAYERS
    PRINT BUDGET
 UBDSV1 SAVING "         STORAGE" ON UNIT  53 AT TIME STEP 34, STRESS PERIOD   2
 UBDSV2 SAVING "   CONSTANT HEAD" ON UNIT  53 AT TIME STEP 34, STRESS PERIOD   2
 UBDSV1 SAVING "FLOW RIGHT FACE " ON UNIT  53 AT TIME STEP 34, STRESS PERIOD   2
 UBDSV1 SAVING "FLOW FRONT FACE " ON UNIT  53 AT TIME STEP 34, STRESS PERIOD   2
 UBDSV1 SAVING "FLOW LOWER FACE " ON UNIT  53 AT TIME STEP 34, STRESS PERIOD   2

 SAVING SATURATED THICKNESS AND FLOW TERMS ON UNIT   54 FOR MT3DMS
 BY THE LINK-MT3DMS PACKAGE V7 AT TIME STEP   34, STRESS PERIOD    2

1
              HEAD IN LAYER   1 AT END OF TIME STEP  34 IN STRESS PERIOD    2
  ---------------------------------------------------------------------------

            1           2           3           4           5           6           7           8           9          10
 ........................................................................................................................
   1    9.998       8.937       7.863       6.778       5.682       4.573       3.451       2.316       1.167      1.5219E-03
   2    9.998       8.937       7.864       6.781       5.687       4.579       3.456       2.319       1.169      1.5237E-03
   3    9.998       8.939       7.868       6.788       5.699       4.594       3.468       2.326       1.172      1.5279E-03
   4    9.998       8.941       7.874       6.802       5.724       4.632       3.494       2.340       1.177      1.5352E-03
   5    9.998       8.944       7.882       6.821       5.771       4.726       3.541       2.359       1.184      1.5447E-03
   6    9.998       8.945       7.887       6.837       5.834       5.018       3.607       2.376       1.189      1.5508E-03
   7    9.998       8.944       7.882       6.821       5.771       4.727       3.542       2.360       1.184      1.5448E-03
   8    9.998       8.941       7.875       6.802       5.725       4.632       3.494       2.340       1.178      1.5355E-03
   9    9.998       8.939       7.869       6.790       5.700       4.596       3.470       2.327       1.172      1.5286E-03
  10    9.998       8.938       7.866       6.784       5.690       4.583       3.460       2.321       1.170      1.5253E-03
1
              HEAD IN LAYER   2 AT END OF TIME STEP  34 IN STRESS PERIOD    2
  ---------------------------------------------------------------------------

            1           2           3           4           5           6           7           8           9          10
 ........................................................................................................................
   1    9.998       8.935       7.861       6.776       5.680       4.572       3.450       2.314       1.166      2.5035E-03
   2    9.998       8.936       7.863       6.780       5.686       4.578       3.455       2.318       1.167      2.5067E-03
   3    9.998       8.937       7.867       6.788       5.698       4.594       3.468       2.325       1.170      2.5139E-03
   4    9.998       8.940       7.874       6.802       5.725       4.632       3.494       2.339       1.176      2.5260E-03
   5    9.998       8.943       7.881       6.822       5.772       4.727       3.542       2.359       1.183      2.5414E-03
   6    9.998       8.944       7.886       6.838       5.835       5.060       3.607       2.376       1.188      2.5513E-03
   7    9.998       8.943       7.882       6.822       5.772       4.727       3.542       2.360       1.183      2.5416E-03
   8    9.998       8.940       7.874       6.802       5.725       4.633       3.495       2.340       1.176      2.5265E-03
   9    9.998       8.938       7.868       6.789       5.700       4.596       3.469       2.326       1.171      2.5151E-03
  10    9.998       8.937       7.865       6.783       5.689       4.582       3.459       2.320       1.168      2.5095E-03
1
              HEAD IN LAYER   3 AT END OF TIME STEP  34 IN STRESS PERIOD    2
  ---------------------------------------------------------------------------

            1           2           3           4           5           6           7           8           9          10
 ........................................................................................................................
   1    9.998       8.934       7.860       6.775       5.679       4.571       3.449       2.313       1.164      2.5532E-03
   2    9.998       8.935       7.862       6.779       5.685       4.577       3.454       2.316       1.166      2.5567E-03
   3    9.998       8.936       7.866       6.787       5.698       4.594       3.467       2.324       1.169      2.5644E-03
   4    9.998       8.939       7.873       6.802       5.725       4.632       3.494       2.339       1.175      2.5773E-03
   5    9.998       8.942       7.881       6.822       5.772       4.723       3.542       2.359       1.182      2.5935E-03
   6    9.998       8.943       7.886       6.839       5.831       4.952       3.602       2.376       1.187      2.6037E-03
   7    9.998       8.942       7.881       6.822       5.772       4.723       3.542       2.360       1.183      2.5937E-03
   8    9.998       8.939       7.873       6.802       5.726       4.633       3.495       2.339       1.175      2.5779E-03
   9    9.998       8.937       7.867       6.788       5.700       4.596       3.469       2.325       1.170      2.5658E-03
  10    9.998       8.935       7.864       6.782       5.689       4.582       3.458       2.319       1.167      2.5598E-03
1
              HEAD IN LAYER   4 AT END OF TIME STEP  34 IN STRESS PERIOD    2
  ---------------------------------------------------------------------------

            1           2           3           4           5           6           7           8           9          10
 ........................................................................................................................
   1    9.998       8.933       7.859       6.775       5.679       4.570       3.448       2.312       1.163      2.5533E-03
   2    9.998       8.934       7.861       6.778       5.684       4.577       3.453       2.315       1.165      2.5568E-03
   3    9.998       8.936       7.865       6.787       5.698       4.594       3.467       2.324       1.168      2.5648E-03
   4    9.998       8.938       7.872       6.802       5.725       4.632       3.494       2.338       1.174      2.5781E-03
   5    9.998       8.941       7.881       6.822       5.772       4.718       3.542       2.359       1.182      2.5946E-03
   6    9.998       8.943       7.886       6.839       5.826       4.889       3.597       2.376       1.187      2.6049E-03
   7    9.998       8.941       7.881       6.823       5.772       4.718       3.542       2.360       1.182      2.5948E-03
   8    9.998       8.939       7.873       6.802       5.726       4.633       3.495       2.339       1.175      2.5787E-03
   9    9.998       8.936       7.866       6.788       5.700       4.596       3.469       2.325       1.169      2.5663E-03
  10    9.998       8.935       7.863       6.781       5.689       4.581       3.458       2.318       1.166      2.5601E-03
1
              HEAD IN LAYER   5 AT END OF TIME STEP  34 IN STRESS PERIOD    2
  ---------------------------------------------------------------------------

            1           2           3           4           5           6           7           8           9          10
 ........................................................................................................................
   1    9.998       8.933       7.859       6.774       5.678       4.570       3.447       2.312       1.163      2.5524E-03
   2    9.998       8.933       7.861       6.778       5.684       4.576       3.453       2.315       1.164      2.5560E-03
   3    9.998       8.935       7.865       6.786       5.698       4.593       3.467       2.323       1.168      2.5641E-03
   4    9.998       8.938       7.872       6.801       5.725       4.632       3.494       2.338       1.174      2.5775E-03
   5    9.998       8.941       7.881       6.822       5.772       4.715       3.542       2.359       1.182      2.5941E-03
   6    9.998       8.943       7.886       6.839       5.824       4.860       3.594       2.376       1.186      2.6045E-03
   7    9.998       8.941       7.881       6.823       5.772       4.715       3.542       2.359       1.182      2.5943E-03
   8    9.998       8.938       7.873       6.802       5.726       4.633       3.495       2.339       1.174      2.5781E-03
   9    9.998       8.936       7.866       6.788       5.700       4.596       3.469       2.325       1.169      2.5656E-03
  10    9.998       8.934       7.863       6.781       5.688       4.581       3.457       2.318       1.166      2.5593E-03

 HEAD WILL BE SAVED ON UNIT   51 AT END OF TIME STEP   34, STRESS PERIOD    2

 DRAWDOWN WILL BE SAVED ON UNIT   52 AT END OF TIME STEP   34, STRESS PERIOD    2
1
  VOLUMETRIC BUDGET FOR ENTIRE MODEL AT END OF TIME STEP   34, STRESS PERIOD   2
  ------------------------------------------------------------------------------

     CUMULATIVE VOLUMES      L**3       RATES FOR THIS TIME STEP      L**3/T
     ------------------                 ------------------------

           IN:                                      IN:
           ---                                      ---
             STORAGE =           0.0000               STORAGE =           0.0000
       CONSTANT HEAD =           0.0000         CONSTANT HEAD =           0.0000
               WELLS =        3400.0000                 WELLS =         100.0000
     HEAD DEP BOUNDS =       40725.9570       HEAD DEP BOUNDS =        1159.5515

            TOTAL IN =       44125.9570              TOTAL IN =        1259.5515

          OUT:                                     OUT:
          ----                                     ----
             STORAGE =        3140.8228               STORAGE =          81.3590
       CONSTANT HEAD =           0.0000         CONSTANT HEAD =           0.0000
               WELLS =           0.0000                 WELLS =           0.0000
     HEAD DEP BOUNDS =       40984.6953       HEAD DEP BOUNDS =        1178.1755

           TOTAL OUT =       44125.5195             TOTAL OUT =        1259.5345

            IN - OUT =           0.4375              IN - OUT =       1.6968E-02

 PERCENT DISCREPANCY =           0.00     PERCENT DISCREPANCY =           0.00






         TIME SUMMARY AT END OF TIME STEP   34 IN STRESS PERIOD    2
                    SECONDS     MINUTES      HOURS       DAYS        YEARS
                    -----------------------------------------------------------
   TIME STEP LENGTH  86400.      1440.0      24.000      1.0000     2.73785E-03
 STRESS PERIOD TIME 2.93760E+06  48960.      816.00      34.000     9.30869E-02
         TOTAL TIME 3.02400E+06  50400.      840.00      35.000     9.58248E-02
1
 
 SOLVING FOR HEAD 

 OUTPUT CONTROL FOR STRESS PERIOD    2   TIME STEP   35
    SAVE HEAD FOR ALL LAYERS
    SAVE DRAWDOWN FOR ALL LAYERS
    SAVE BUDGET
    PRINT HEAD FOR ALL LAYERS
    PRINT BUDGET
 UBDSV1 SAVING "         STORAGE" ON UNIT  53 AT TIME STEP 35, STRESS PERIOD   2
 UBDSV2 SAVING "   CONSTANT HEAD" ON UNIT  53 AT TIME STEP 35, STRESS PERIOD   2
 UBDSV1 SAVING "FLOW RIGHT FACE " ON UNIT  53 AT TIME STEP 35, STRESS PERIOD   2
 UBDSV1 SAVING "FLOW FRONT FACE " ON UNIT  53 AT TIME STEP 35, STRESS PERIOD   2
 UBDSV1 SAVING "FLOW LOWER FACE " ON UNIT  53 AT TIME STEP 35, STRESS PERIOD   2

 SAVING SATURATED THICKNESS AND FLOW TERMS ON UNIT   54 FOR MT3DMS
 BY THE LINK-MT3DMS PACKAGE V7 AT TIME STEP   35, STRESS PERIOD    2

1
              HEAD IN LAYER   1 AT END OF TIME STEP  35 IN STRESS PERIOD    2
  ---------------------------------------------------------------------------

            1           2           3           4           5           6           7           8           9          10
 ........................................................................................................................
   1    9.998       8.937       7.863       6.778       5.682       4.574       3.452       2.316       1.168      1.5221E-03
   2    9.998       8.938       7.865       6.782       5.687       4.580       3.457       2.319       1.169      1.5240E-03
   3    9.998       8.939       7.869       6.789       5.700       4.595       3.469       2.327       1.172      1.5284E-03
   4    9.998       8.942       7.875       6.803       5.726       4.633       3.495       2.341       1.178      1.5360E-03
   5    9.998       8.944       7.883       6.823       5.773       4.729       3.543       2.361       1.185      1.5456E-03
   6    9.998       8.946       7.888       6.839       5.836       5.021       3.609       2.378       1.190      1.5519E-03
   7    9.998       8.944       7.883       6.823       5.773       4.729       3.544       2.361       1.185      1.5457E-03
   8    9.998       8.942       7.875       6.803       5.726       4.634       3.496       2.341       1.178      1.5362E-03
   9    9.998       8.939       7.869       6.790       5.701       4.597       3.471       2.328       1.173      1.5291E-03
  10    9.998       8.938       7.866       6.784       5.691       4.584       3.460       2.322       1.170      1.5257E-03
1
              HEAD IN LAYER   2 AT END OF TIME STEP  35 IN STRESS PERIOD    2
  ---------------------------------------------------------------------------

            1           2           3           4           5           6           7           8           9          10
 ........................................................................................................................
   1    9.998       8.935       7.861       6.777       5.681       4.572       3.450       2.315       1.166      2.5038E-03
   2    9.998       8.936       7.863       6.780       5.686       4.579       3.455       2.318       1.167      2.5071E-03
   3    9.998       8.938       7.867       6.788       5.699       4.595       3.469       2.326       1.171      2.5146E-03
   4    9.998       8.940       7.874       6.803       5.726       4.634       3.496       2.340       1.177      2.5271E-03
   5    9.998       8.943       7.882       6.823       5.774       4.729       3.544       2.361       1.184      2.5429E-03
   6    9.998       8.944       7.887       6.840       5.837       5.062       3.609       2.378       1.189      2.5530E-03
   7    9.998       8.943       7.882       6.823       5.774       4.729       3.544       2.361       1.184      2.5431E-03
   8    9.998       8.940       7.875       6.803       5.727       4.635       3.496       2.341       1.177      2.5277E-03
   9    9.998       8.938       7.868       6.790       5.701       4.597       3.470       2.327       1.171      2.5159E-03
  10    9.998       8.937       7.865       6.783       5.690       4.583       3.460       2.321       1.169      2.5101E-03
1
              HEAD IN LAYER   3 AT END OF TIME STEP  35 IN STRESS PERIOD    2
  ---------------------------------------------------------------------------

            1           2           3           4           5           6           7           8           9          10
 ........................................................................................................................
   1    9.998       8.934       7.860       6.776       5.680       4.571       3.449       2.313       1.164      2.5536E-03
   2    9.998       8.935       7.862       6.779       5.685       4.578       3.454       2.317       1.166      2.5572E-03
   3    9.998       8.937       7.867       6.788       5.699       4.595       3.468       2.325       1.170      2.5651E-03
   4    9.998       8.939       7.874       6.803       5.726       4.634       3.496       2.340       1.176      2.5784E-03
   5    9.998       8.942       7.882       6.824       5.774       4.725       3.544       2.361       1.183      2.5949E-03
   6    9.998       8.944       7.887       6.840       5.833       4.954       3.604       2.378       1.188      2.6054E-03
   7    9.998       8.942       7.882       6.824       5.774       4.725       3.544       2.361       1.183      2.5952E-03
   8    9.998       8.939       7.874       6.803       5.727       4.635       3.496       2.340       1.176      2.5790E-03
   9    9.998       8.937       7.867       6.789       5.701       4.597       3.470       2.326       1.170      2.5666E-03
  10    9.998       8.936       7.864       6.783       5.690       4.583       3.459       2.320       1.167      2.5604E-03
1
              HEAD IN LAYER   4 AT END OF TIME STEP  35 IN STRESS PERIOD    2
  ---------------------------------------------------------------------------

            1           2           3           4           5           6           7           8           9          10
 ........................................................................................................................
   1    9.998       8.933       7.859       6.775       5.679       4.571       3.448       2.312       1.163      2.5537E-03
   2    9.998       8.934       7.861       6.779       5.685       4.577       3.454       2.316       1.165      2.5574E-03
   3    9.998       8.936       7.866       6.787       5.699       4.595       3.468       2.324       1.169      2.5656E-03
   4    9.998       8.939       7.873       6.803       5.726       4.634       3.496       2.339       1.175      2.5792E-03
   5    9.998       8.942       7.882       6.824       5.774       4.720       3.544       2.361       1.183      2.5960E-03
   6    9.998       8.943       7.887       6.840       5.829       4.892       3.599       2.377       1.187      2.6065E-03
   7    9.998       8.942       7.882       6.824       5.774       4.720       3.544       2.361       1.183      2.5963E-03
   8    9.998       8.939       7.874       6.803       5.727       4.635       3.497       2.340       1.175      2.5799E-03
   9    9.998       8.936       7.867       6.789       5.701       4.597       3.470       2.326       1.169      2.5672E-03
  10    9.998       8.935       7.863       6.782       5.689       4.582       3.458       2.319       1.167      2.5608E-03
1
              HEAD IN LAYER   5 AT END OF TIME STEP  35 IN STRESS PERIOD    2
  ---------------------------------------------------------------------------

            1           2           3           4           5           6           7           8           9          10
 ........................................................................................................................
   1    9.998       8.933       7.859       6.775       5.679       4.570       3.448       2.312       1.163      2.5527E-03
   2    9.998       8.934       7.861       6.778       5.684       4.577       3.453       2.315       1.165      2.5565E-03
   3    9.998       8.936       7.866       6.787       5.699       4.595       3.468       2.324       1.168      2.5648E-03
   4    9.998       8.938       7.873       6.803       5.727       4.634       3.496       2.339       1.175      2.5786E-03
   5    9.998       8.941       7.882       6.824       5.774       4.717       3.543       2.361       1.182      2.5956E-03
   6    9.998       8.943       7.887       6.840       5.826       4.863       3.596       2.377       1.187      2.6061E-03
   7    9.998       8.941       7.882       6.824       5.774       4.718       3.544       2.361       1.183      2.5958E-03
   8    9.998       8.939       7.873       6.803       5.727       4.635       3.497       2.340       1.175      2.5793E-03
   9    9.998       8.936       7.867       6.789       5.701       4.597       3.470       2.325       1.169      2.5664E-03
  10    9.998       8.935       7.863       6.782       5.689       4.582       3.458       2.319       1.166      2.5600E-03

 HEAD WILL BE SAVED ON UNIT   51 AT END OF TIME STEP   35, STRESS PERIOD    2

 DRAWDOWN WILL BE SAVED ON UNIT   52 AT END OF TIME STEP   35, STRESS PERIOD    2
1
  VOLUMETRIC BUDGET FOR ENTIRE MODEL AT END OF TIME STEP   35, STRESS PERIOD   2
  ------------------------------------------------------------------------------

     CUMULATIVE VOLUMES      L**3       RATES FOR THIS TIME STEP      L**3/T
     ------------------                 ------------------------

           IN:                                      IN:
           ---                                      ---
             STORAGE =           0.0000               STORAGE =           0.0000
       CONSTANT HEAD =           0.0000         CONSTANT HEAD =           0.0000
               WELLS =        3500.0000                 WELLS =         100.0000
     HEAD DEP BOUNDS =       41885.2031       HEAD DEP BOUNDS =        1159.2471

            TOTAL IN =       45385.2031              TOTAL IN =        1259.2471

          OUT:                                     OUT:
          ----                                     ----
             STORAGE =        3221.4060               STORAGE =          80.5833
       CONSTANT HEAD =           0.0000         CONSTANT HEAD =           0.0000
               WELLS =           0.0000                 WELLS =           0.0000
     HEAD DEP BOUNDS =       42163.3398       HEAD DEP BOUNDS =        1178.6439

           TOTAL OUT =       45384.7461             TOTAL OUT =        1259.2273

            IN - OUT =           0.4570              IN - OUT =       1.9775E-02

 PERCENT DISCREPANCY =           0.00     PERCENT DISCREPANCY =           0.00






         TIME SUMMARY AT END OF TIME STEP   35 IN STRESS PERIOD    2
                    SECONDS     MINUTES      HOURS       DAYS        YEARS
                    -----------------------------------------------------------
   TIME STEP LENGTH  86400.      1440.0      24.000      1.0000     2.73785E-03
 STRESS PERIOD TIME 3.02400E+06  50400.      840.00      35.000     9.58248E-02
         TOTAL TIME 3.11040E+06  51840.      864.00      36.000     9.85626E-02
1
 
 SOLVING FOR HEAD 

 OUTPUT CONTROL FOR STRESS PERIOD    2   TIME STEP   36
    SAVE HEAD FOR ALL LAYERS
    SAVE DRAWDOWN FOR ALL LAYERS
    SAVE BUDGET
    PRINT HEAD FOR ALL LAYERS
    PRINT BUDGET
 UBDSV1 SAVING "         STORAGE" ON UNIT  53 AT TIME STEP 36, STRESS PERIOD   2
 UBDSV2 SAVING "   CONSTANT HEAD" ON UNIT  53 AT TIME STEP 36, STRESS PERIOD   2
 UBDSV1 SAVING "FLOW RIGHT FACE " ON UNIT  53 AT TIME STEP 36, STRESS PERIOD   2
 UBDSV1 SAVING "FLOW FRONT FACE " ON UNIT  53 AT TIME STEP 36, STRESS PERIOD   2
 UBDSV1 SAVING "FLOW LOWER FACE " ON UNIT  53 AT TIME STEP 36, STRESS PERIOD   2

 SAVING SATURATED THICKNESS AND FLOW TERMS ON UNIT   54 FOR MT3DMS
 BY THE LINK-MT3DMS PACKAGE V7 AT TIME STEP   36, STRESS PERIOD    2

1
              HEAD IN LAYER   1 AT END OF TIME STEP  36 IN STRESS PERIOD    2
  ---------------------------------------------------------------------------

            1           2           3           4           5           6           7           8           9          10
 ........................................................................................................................
   1    9.998       8.937       7.863       6.779       5.683       4.574       3.452       2.317       1.168      1.5222E-03
   2    9.998       8.938       7.865       6.782       5.688       4.580       3.457       2.320       1.169      1.5243E-03
   3    9.998       8.939       7.869       6.790       5.701       4.597       3.470       2.328       1.173      1.5289E-03
   4    9.998       8.942       7.876       6.804       5.727       4.635       3.497       2.342       1.178      1.5367E-03
   5    9.998       8.945       7.884       6.824       5.775       4.731       3.545       2.362       1.186      1.5466E-03
   6    9.998       8.946       7.889       6.841       5.838       5.023       3.611       2.379       1.190      1.5529E-03
   7    9.998       8.945       7.884       6.824       5.775       4.731       3.546       2.362       1.186      1.5467E-03
   8    9.998       8.942       7.876       6.805       5.728       4.636       3.498       2.342       1.179      1.5370E-03
   9    9.998       8.940       7.870       6.791       5.702       4.598       3.472       2.329       1.173      1.5296E-03
  10    9.998       8.939       7.867       6.785       5.692       4.585       3.461       2.323       1.171      1.5261E-03
1
              HEAD IN LAYER   2 AT END OF TIME STEP  36 IN STRESS PERIOD    2
  ---------------------------------------------------------------------------

            1           2           3           4           5           6           7           8           9          10
 ........................................................................................................................
   1    9.998       8.935       7.862       6.777       5.681       4.573       3.451       2.315       1.166      2.5042E-03
   2    9.998       8.936       7.864       6.781       5.687       4.579       3.456       2.318       1.168      2.5076E-03
   3    9.998       8.938       7.868       6.789       5.700       4.596       3.470       2.327       1.171      2.5154E-03
   4    9.998       8.941       7.875       6.804       5.727       4.635       3.497       2.341       1.177      2.5283E-03
   5    9.998       8.943       7.883       6.825       5.776       4.731       3.546       2.362       1.185      2.5444E-03
   6    9.998       8.945       7.888       6.841       5.839       5.065       3.611       2.379       1.189      2.5546E-03
   7    9.998       8.943       7.883       6.825       5.776       4.731       3.546       2.362       1.185      2.5446E-03
   8    9.998       8.941       7.875       6.805       5.728       4.636       3.498       2.342       1.177      2.5289E-03
   9    9.998       8.938       7.869       6.791       5.702       4.598       3.471       2.328       1.172      2.5168E-03
  10    9.998       8.937       7.866       6.784       5.691       4.584       3.460       2.321       1.169      2.5108E-03
1
              HEAD IN LAYER   3 AT END OF TIME STEP  36 IN STRESS PERIOD    2
  ---------------------------------------------------------------------------

            1           2           3           4           5           6           7           8           9          10
 ........................................................................................................................
   1    9.998       8.934       7.860       6.776       5.680       4.572       3.449       2.314       1.164      2.5540E-03
   2    9.998       8.935       7.862       6.780       5.686       4.578       3.455       2.317       1.166      2.5577E-03
   3    9.998       8.937       7.867       6.788       5.700       4.596       3.469       2.326       1.170      2.5659E-03
   4    9.998       8.940       7.874       6.804       5.728       4.635       3.497       2.341       1.176      2.5796E-03
   5    9.998       8.943       7.883       6.825       5.776       4.727       3.546       2.362       1.184      2.5964E-03
   6    9.998       8.944       7.888       6.842       5.835       4.957       3.606       2.379       1.189      2.6070E-03
   7    9.998       8.943       7.883       6.825       5.776       4.727       3.546       2.362       1.184      2.5967E-03
   8    9.998       8.940       7.875       6.804       5.729       4.636       3.498       2.341       1.176      2.5802E-03
   9    9.998       8.937       7.868       6.790       5.702       4.598       3.471       2.327       1.171      2.5675E-03
  10    9.998       8.936       7.865       6.783       5.691       4.584       3.460       2.320       1.168      2.5611E-03
1
              HEAD IN LAYER   4 AT END OF TIME STEP  36 IN STRESS PERIOD    2
  ---------------------------------------------------------------------------

            1           2           3           4           5           6           7           8           9          10
 ........................................................................................................................
   1    9.998       8.933       7.860       6.775       5.680       4.571       3.449       2.313       1.164      2.5541E-03
   2    9.998       8.934       7.862       6.779       5.685       4.578       3.454       2.316       1.165      2.5579E-03
   3    9.998       8.936       7.866       6.788       5.700       4.596       3.469       2.325       1.169      2.5664E-03
   4    9.998       8.939       7.874       6.804       5.728       4.635       3.497       2.340       1.175      2.5803E-03
   5    9.998       8.942       7.883       6.825       5.776       4.722       3.546       2.362       1.183      2.5975E-03
   6    9.998       8.944       7.888       6.842       5.831       4.894       3.601       2.379       1.188      2.6081E-03
   7    9.998       8.942       7.883       6.825       5.776       4.722       3.546       2.362       1.183      2.5977E-03
   8    9.998       8.939       7.874       6.804       5.729       4.636       3.498       2.341       1.176      2.5810E-03
   9    9.998       8.937       7.867       6.790       5.702       4.598       3.471       2.327       1.170      2.5680E-03
  10    9.998       8.935       7.864       6.783       5.690       4.583       3.459       2.320       1.167      2.5615E-03
1
              HEAD IN LAYER   5 AT END OF TIME STEP  36 IN STRESS PERIOD    2
  ---------------------------------------------------------------------------

            1           2           3           4           5           6           7           8           9          10
 ........................................................................................................................
   1    9.998       8.933       7.859       6.775       5.679       4.571       3.448       2.312       1.163      2.5531E-03
   2    9.998       8.934       7.861       6.779       5.685       4.578       3.454       2.316       1.165      2.5570E-03
   3    9.998       8.936       7.866       6.788       5.699       4.596       3.469       2.325       1.169      2.5656E-03
   4    9.998       8.939       7.874       6.804       5.728       4.635       3.497       2.340       1.175      2.5797E-03
   5    9.998       8.942       7.882       6.825       5.776       4.719       3.545       2.362       1.183      2.5970E-03
   6    9.998       8.943       7.888       6.842       5.828       4.865       3.598       2.378       1.188      2.6077E-03
   7    9.998       8.942       7.883       6.825       5.776       4.720       3.546       2.362       1.183      2.5973E-03
   8    9.998       8.939       7.874       6.804       5.729       4.636       3.498       2.341       1.176      2.5805E-03
   9    9.998       8.936       7.867       6.790       5.702       4.598       3.471       2.326       1.170      2.5673E-03
  10    9.998       8.935       7.864       6.783       5.690       4.583       3.459       2.319       1.166      2.5607E-03

 HEAD WILL BE SAVED ON UNIT   51 AT END OF TIME STEP   36, STRESS PERIOD    2

 DRAWDOWN WILL BE SAVED ON UNIT   52 AT END OF TIME STEP   36, STRESS PERIOD    2
1
  VOLUMETRIC BUDGET FOR ENTIRE MODEL AT END OF TIME STEP   36, STRESS PERIOD   2
  ------------------------------------------------------------------------------

     CUMULATIVE VOLUMES      L**3       RATES FOR THIS TIME STEP      L**3/T
     ------------------                 ------------------------

           IN:                                      IN:
           ---                                      ---
             STORAGE =           0.0000               STORAGE =           0.0000
       CONSTANT HEAD =           0.0000         CONSTANT HEAD =           0.0000
               WELLS =        3600.0000                 WELLS =         100.0000
     HEAD DEP BOUNDS =       43044.1211       HEAD DEP BOUNDS =        1158.9187

            TOTAL IN =       46644.1211              TOTAL IN =        1258.9187

          OUT:                                     OUT:
          ----                                     ----
             STORAGE =        3301.2136               STORAGE =          79.8075
       CONSTANT HEAD =           0.0000         CONSTANT HEAD =           0.0000
               WELLS =           0.0000                 WELLS =           0.0000
     HEAD DEP BOUNDS =       43342.4492       HEAD DEP BOUNDS =        1179.1097

           TOTAL OUT =       46643.6641             TOTAL OUT =        1258.9172

            IN - OUT =           0.4570              IN - OUT =       1.4648E-03

 PERCENT DISCREPANCY =           0.00     PERCENT DISCREPANCY =           0.00






         TIME SUMMARY AT END OF TIME STEP   36 IN STRESS PERIOD    2
                    SECONDS     MINUTES      HOURS       DAYS        YEARS
                    -----------------------------------------------------------
   TIME STEP LENGTH  86400.      1440.0      24.000      1.0000     2.73785E-03
 STRESS PERIOD TIME 3.11040E+06  51840.      864.00      36.000     9.85626E-02
         TOTAL TIME 3.19680E+06  53280.      888.00      37.000     0.10130    
1
 
 SOLVING FOR HEAD 

 OUTPUT CONTROL FOR STRESS PERIOD    2   TIME STEP   37
    SAVE HEAD FOR ALL LAYERS
    SAVE DRAWDOWN FOR ALL LAYERS
    SAVE BUDGET
    PRINT HEAD FOR ALL LAYERS
    PRINT BUDGET
 UBDSV1 SAVING "         STORAGE" ON UNIT  53 AT TIME STEP 37, STRESS PERIOD   2
 UBDSV2 SAVING "   CONSTANT HEAD" ON UNIT  53 AT TIME STEP 37, STRESS PERIOD   2
 UBDSV1 SAVING "FLOW RIGHT FACE " ON UNIT  53 AT TIME STEP 37, STRESS PERIOD   2
 UBDSV1 SAVING "FLOW FRONT FACE " ON UNIT  53 AT TIME STEP 37, STRESS PERIOD   2
 UBDSV1 SAVING "FLOW LOWER FACE " ON UNIT  53 AT TIME STEP 37, STRESS PERIOD   2

 SAVING SATURATED THICKNESS AND FLOW TERMS ON UNIT   54 FOR MT3DMS
 BY THE LINK-MT3DMS PACKAGE V7 AT TIME STEP   37, STRESS PERIOD    2

1
              HEAD IN LAYER   1 AT END OF TIME STEP  37 IN STRESS PERIOD    2
  ---------------------------------------------------------------------------

            1           2           3           4           5           6           7           8           9          10
 ........................................................................................................................
   1    9.998       8.937       7.863       6.779       5.683       4.575       3.452       2.317       1.168      1.5224E-03
   2    9.998       8.938       7.865       6.782       5.688       4.581       3.458       2.320       1.169      1.5246E-03
   3    9.998       8.940       7.870       6.791       5.702       4.598       3.471       2.328       1.173      1.5293E-03
   4    9.998       8.942       7.876       6.805       5.729       4.637       3.498       2.343       1.179      1.5374E-03
   5    9.998       8.945       7.885       6.826       5.777       4.733       3.547       2.364       1.186      1.5475E-03
   6    9.998       8.946       7.890       6.842       5.841       5.026       3.614       2.381       1.191      1.5539E-03
   7    9.998       8.945       7.885       6.826       5.777       4.734       3.548       2.364       1.186      1.5476E-03
   8    9.998       8.942       7.877       6.806       5.729       4.637       3.499       2.343       1.179      1.5378E-03
   9    9.998       8.940       7.870       6.792       5.703       4.600       3.473       2.329       1.174      1.5302E-03
  10    9.998       8.939       7.867       6.786       5.693       4.586       3.462       2.323       1.171      1.5264E-03
1
              HEAD IN LAYER   2 AT END OF TIME STEP  37 IN STRESS PERIOD    2
  ---------------------------------------------------------------------------

            1           2           3           4           5           6           7           8           9          10
 ........................................................................................................................
   1    9.998       8.935       7.862       6.778       5.682       4.573       3.451       2.315       1.166      2.5046E-03
   2    9.998       8.936       7.864       6.781       5.687       4.580       3.457       2.319       1.168      2.5081E-03
   3    9.998       8.938       7.868       6.790       5.701       4.597       3.470       2.327       1.172      2.5161E-03
   4    9.998       8.941       7.876       6.805       5.729       4.637       3.498       2.342       1.178      2.5294E-03
   5    9.998       8.944       7.884       6.826       5.778       4.733       3.548       2.364       1.185      2.5458E-03
   6    9.998       8.945       7.889       6.843       5.841       5.067       3.613       2.381       1.190      2.5562E-03
   7    9.998       8.944       7.884       6.826       5.778       4.734       3.548       2.364       1.185      2.5461E-03
   8    9.998       8.941       7.876       6.806       5.730       4.638       3.499       2.343       1.178      2.5300E-03
   9    9.998       8.939       7.869       6.791       5.703       4.599       3.472       2.329       1.172      2.5176E-03
  10    9.998       8.937       7.866       6.785       5.692       4.585       3.461       2.322       1.169      2.5115E-03
1
              HEAD IN LAYER   3 AT END OF TIME STEP  37 IN STRESS PERIOD    2
  ---------------------------------------------------------------------------

            1           2           3           4           5           6           7           8           9          10
 ........................................................................................................................
   1    9.998       8.934       7.861       6.776       5.681       4.572       3.450       2.314       1.165      2.5544E-03
   2    9.998       8.935       7.863       6.780       5.687       4.579       3.456       2.318       1.166      2.5582E-03
   3    9.998       8.937       7.867       6.789       5.701       4.597       3.470       2.326       1.170      2.5667E-03
   4    9.998       8.940       7.875       6.805       5.729       4.637       3.498       2.342       1.177      2.5807E-03
   5    9.998       8.943       7.884       6.826       5.778       4.729       3.548       2.363       1.185      2.5979E-03
   6    9.998       8.945       7.889       6.843       5.837       4.959       3.608       2.381       1.189      2.6086E-03
   7    9.998       8.943       7.884       6.827       5.778       4.729       3.548       2.364       1.185      2.5981E-03
   8    9.998       8.940       7.875       6.806       5.730       4.638       3.499       2.342       1.177      2.5814E-03
   9    9.998       8.938       7.869       6.791       5.703       4.599       3.472       2.328       1.171      2.5684E-03
  10    9.998       8.936       7.865       6.784       5.691       4.585       3.460       2.321       1.168      2.5618E-03
1
              HEAD IN LAYER   4 AT END OF TIME STEP  37 IN STRESS PERIOD    2
  ---------------------------------------------------------------------------

            1           2           3           4           5           6           7           8           9          10
 ........................................................................................................................
   1    9.998       8.933       7.860       6.776       5.680       4.572       3.449       2.313       1.164      2.5544E-03
   2    9.998       8.934       7.862       6.780       5.686       4.579       3.455       2.317       1.165      2.5584E-03
   3    9.998       8.936       7.867       6.789       5.701       4.597       3.470       2.326       1.169      2.5672E-03
   4    9.998       8.939       7.874       6.805       5.729       4.637       3.498       2.341       1.176      2.5815E-03
   5    9.998       8.942       7.883       6.826       5.778       4.724       3.547       2.363       1.184      2.5989E-03
   6    9.998       8.944       7.889       6.843       5.832       4.896       3.603       2.380       1.189      2.6097E-03
   7    9.998       8.943       7.884       6.827       5.778       4.724       3.548       2.363       1.184      2.5992E-03
   8    9.998       8.940       7.875       6.805       5.730       4.638       3.499       2.342       1.176      2.5822E-03
   9    9.998       8.937       7.868       6.791       5.703       4.599       3.472       2.327       1.170      2.5689E-03
  10    9.998       8.935       7.864       6.783       5.691       4.584       3.460       2.320       1.167      2.5622E-03
1
              HEAD IN LAYER   5 AT END OF TIME STEP  37 IN STRESS PERIOD    2
  ---------------------------------------------------------------------------

            1           2           3           4           5           6           7           8           9          10
 ........................................................................................................................
   1    9.998       8.933       7.859       6.775       5.680       4.571       3.449       2.312       1.163      2.5535E-03
   2    9.998       8.934       7.862       6.779       5.686       4.578       3.455       2.316       1.165      2.5575E-03
   3    9.998       8.936       7.867       6.789       5.700       4.597       3.469       2.325       1.169      2.5664E-03
   4    9.998       8.939       7.874       6.805       5.729       4.637       3.498       2.341       1.176      2.5809E-03
   5    9.998       8.942       7.883       6.827       5.777       4.721       3.547       2.363       1.184      2.5984E-03
   6    9.998       8.944       7.889       6.843       5.830       4.867       3.600       2.380       1.189      2.6092E-03
   7    9.998       8.942       7.884       6.827       5.778       4.722       3.547       2.363       1.184      2.5987E-03
   8    9.998       8.939       7.875       6.805       5.730       4.638       3.499       2.342       1.176      2.5816E-03
   9    9.998       8.937       7.868       6.790       5.703       4.599       3.472       2.327       1.170      2.5682E-03
  10    9.998       8.935       7.864       6.783       5.691       4.584       3.460       2.320       1.167      2.5614E-03

 HEAD WILL BE SAVED ON UNIT   51 AT END OF TIME STEP   37, STRESS PERIOD    2

 DRAWDOWN WILL BE SAVED ON UNIT   52 AT END OF TIME STEP   37, STRESS PERIOD    2
1
  VOLUMETRIC BUDGET FOR ENTIRE MODEL AT END OF TIME STEP   37, STRESS PERIOD   2
  ------------------------------------------------------------------------------

     CUMULATIVE VOLUMES      L**3       RATES FOR THIS TIME STEP      L**3/T
     ------------------                 ------------------------

           IN:                                      IN:
           ---                                      ---
             STORAGE =           0.0000               STORAGE =           0.0000
       CONSTANT HEAD =           0.0000         CONSTANT HEAD =           0.0000
               WELLS =        3700.0000                 WELLS =         100.0000
     HEAD DEP BOUNDS =       44202.7305       HEAD DEP BOUNDS =        1158.6099

            TOTAL IN =       47902.7305              TOTAL IN =        1258.6099

          OUT:                                     OUT:
          ----                                     ----
             STORAGE =        3380.2446               STORAGE =          79.0311
       CONSTANT HEAD =           0.0000         CONSTANT HEAD =           0.0000
               WELLS =           0.0000                 WELLS =           0.0000
     HEAD DEP BOUNDS =       44522.0234       HEAD DEP BOUNDS =        1179.5725

           TOTAL OUT =       47902.2695             TOTAL OUT =        1258.6035

            IN - OUT =           0.4609              IN - OUT =       6.3477E-03

 PERCENT DISCREPANCY =           0.00     PERCENT DISCREPANCY =           0.00






         TIME SUMMARY AT END OF TIME STEP   37 IN STRESS PERIOD    2
                    SECONDS     MINUTES      HOURS       DAYS        YEARS
                    -----------------------------------------------------------
   TIME STEP LENGTH  86400.      1440.0      24.000      1.0000     2.73785E-03
 STRESS PERIOD TIME 3.19680E+06  53280.      888.00      37.000     0.10130    
         TOTAL TIME 3.28320E+06  54720.      912.00      38.000     0.10404    
1
 
 SOLVING FOR HEAD 

 OUTPUT CONTROL FOR STRESS PERIOD    2   TIME STEP   38
    SAVE HEAD FOR ALL LAYERS
    SAVE DRAWDOWN FOR ALL LAYERS
    SAVE BUDGET
    PRINT HEAD FOR ALL LAYERS
    PRINT BUDGET
 UBDSV1 SAVING "         STORAGE" ON UNIT  53 AT TIME STEP 38, STRESS PERIOD   2
 UBDSV2 SAVING "   CONSTANT HEAD" ON UNIT  53 AT TIME STEP 38, STRESS PERIOD   2
 UBDSV1 SAVING "FLOW RIGHT FACE " ON UNIT  53 AT TIME STEP 38, STRESS PERIOD   2
 UBDSV1 SAVING "FLOW FRONT FACE " ON UNIT  53 AT TIME STEP 38, STRESS PERIOD   2
 UBDSV1 SAVING "FLOW LOWER FACE " ON UNIT  53 AT TIME STEP 38, STRESS PERIOD   2

 SAVING SATURATED THICKNESS AND FLOW TERMS ON UNIT   54 FOR MT3DMS
 BY THE LINK-MT3DMS PACKAGE V7 AT TIME STEP   38, STRESS PERIOD    2

1
              HEAD IN LAYER   1 AT END OF TIME STEP  38 IN STRESS PERIOD    2
  ---------------------------------------------------------------------------

            1           2           3           4           5           6           7           8           9          10
 ........................................................................................................................
   1    9.998       8.937       7.864       6.779       5.684       4.575       3.453       2.317       1.168      1.5226E-03
   2    9.998       8.938       7.866       6.783       5.689       4.582       3.458       2.321       1.170      1.5249E-03
   3    9.998       8.940       7.870       6.791       5.703       4.599       3.472       2.329       1.173      1.5298E-03
   4    9.998       8.942       7.877       6.806       5.730       4.638       3.500       2.344       1.179      1.5381E-03
   5    9.998       8.945       7.885       6.827       5.779       4.735       3.549       2.365       1.187      1.5485E-03
   6    9.998       8.947       7.890       6.844       5.843       5.028       3.616       2.382       1.192      1.5550E-03
   7    9.998       8.945       7.886       6.827       5.779       4.736       3.550       2.365       1.187      1.5486E-03
   8    9.998       8.943       7.877       6.807       5.731       4.639       3.501       2.344       1.180      1.5384E-03
   9    9.998       8.940       7.871       6.793       5.705       4.601       3.474       2.330       1.174      1.5308E-03
  10    9.998       8.939       7.868       6.786       5.693       4.587       3.463       2.324       1.171      1.5269E-03
1
              HEAD IN LAYER   2 AT END OF TIME STEP  38 IN STRESS PERIOD    2
  ---------------------------------------------------------------------------

            1           2           3           4           5           6           7           8           9          10
 ........................................................................................................................
   1    9.998       8.935       7.862       6.778       5.682       4.574       3.452       2.316       1.166      2.5049E-03
   2    9.998       8.936       7.864       6.782       5.688       4.581       3.457       2.319       1.168      2.5086E-03
   3    9.998       8.938       7.869       6.791       5.702       4.598       3.471       2.328       1.172      2.5169E-03
   4    9.998       8.941       7.876       6.806       5.730       4.639       3.500       2.343       1.178      2.5305E-03
   5    9.998       8.944       7.885       6.827       5.779       4.735       3.550       2.365       1.186      2.5473E-03
   6    9.998       8.946       7.890       6.844       5.843       5.069       3.615       2.382       1.191      2.5578E-03
   7    9.998       8.944       7.885       6.828       5.780       4.736       3.550       2.365       1.186      2.5475E-03
   8    9.998       8.941       7.877       6.807       5.731       4.640       3.501       2.344       1.179      2.5312E-03
   9    9.998       8.939       7.870       6.792       5.704       4.601       3.473       2.329       1.173      2.5185E-03
  10    9.998       8.937       7.866       6.785       5.693       4.586       3.462       2.323       1.170      2.5121E-03
1
              HEAD IN LAYER   3 AT END OF TIME STEP  38 IN STRESS PERIOD    2
  ---------------------------------------------------------------------------

            1           2           3           4           5           6           7           8           9          10
 ........................................................................................................................
   1    9.998       8.934       7.861       6.777       5.681       4.573       3.450       2.314       1.165      2.5547E-03
   2    9.998       8.935       7.863       6.781       5.687       4.580       3.456       2.318       1.167      2.5587E-03
   3    9.998       8.937       7.868       6.790       5.702       4.598       3.471       2.327       1.171      2.5675E-03
   4    9.998       8.940       7.876       6.806       5.731       4.639       3.500       2.343       1.177      2.5818E-03
   5    9.998       8.943       7.885       6.828       5.780       4.731       3.550       2.365       1.185      2.5993E-03
   6    9.998       8.945       7.890       6.845       5.839       4.961       3.610       2.382       1.190      2.6101E-03
   7    9.998       8.943       7.885       6.828       5.780       4.731       3.550       2.365       1.185      2.5996E-03
   8    9.998       8.940       7.876       6.807       5.731       4.640       3.501       2.343       1.178      2.5826E-03
   9    9.998       8.938       7.869       6.792       5.704       4.600       3.473       2.329       1.171      2.5693E-03
  10    9.998       8.936       7.865       6.785       5.692       4.586       3.461       2.322       1.168      2.5625E-03
1
              HEAD IN LAYER   4 AT END OF TIME STEP  38 IN STRESS PERIOD    2
  ---------------------------------------------------------------------------

            1           2           3           4           5           6           7           8           9          10
 ........................................................................................................................
   1    9.998       8.933       7.860       6.776       5.681       4.572       3.450       2.313       1.164      2.5548E-03
   2    9.998       8.934       7.862       6.780       5.687       4.579       3.456       2.317       1.166      2.5589E-03
   3    9.998       8.937       7.867       6.790       5.702       4.598       3.471       2.326       1.170      2.5680E-03
   4    9.998       8.940       7.875       6.806       5.731       4.638       3.500       2.342       1.177      2.5826E-03
   5    9.998       8.943       7.884       6.828       5.779       4.726       3.549       2.364       1.185      2.6003E-03
   6    9.998       8.945       7.890       6.845       5.834       4.898       3.605       2.381       1.190      2.6112E-03
   7    9.998       8.943       7.885       6.828       5.780       4.726       3.549       2.365       1.185      2.6006E-03
   8    9.998       8.940       7.876       6.807       5.732       4.639       3.501       2.343       1.177      2.5834E-03
   9    9.998       8.937       7.869       6.791       5.704       4.600       3.473       2.328       1.171      2.5698E-03
  10    9.998       8.936       7.865       6.784       5.692       4.585       3.461       2.321       1.168      2.5629E-03
1
              HEAD IN LAYER   5 AT END OF TIME STEP  38 IN STRESS PERIOD    2
  ---------------------------------------------------------------------------

            1           2           3           4           5           6           7           8           9          10
 ........................................................................................................................
   1    9.998       8.933       7.860       6.776       5.680       4.572       3.449       2.313       1.163      2.5539E-03
   2    9.998       8.934       7.862       6.780       5.686       4.579       3.455       2.317       1.165      2.5580E-03
   3    9.998       8.936       7.867       6.789       5.701       4.598       3.470       2.326       1.169      2.5672E-03
   4    9.998       8.939       7.875       6.806       5.731       4.638       3.500       2.342       1.176      2.5820E-03
   5    9.998       8.943       7.884       6.828       5.779       4.723       3.549       2.364       1.184      2.5998E-03
   6    9.998       8.944       7.890       6.844       5.832       4.869       3.602       2.381       1.189      2.6107E-03
   7    9.998       8.943       7.884       6.828       5.779       4.723       3.549       2.365       1.184      2.6001E-03
   8    9.998       8.940       7.876       6.807       5.732       4.639       3.501       2.343       1.177      2.5828E-03
   9    9.998       8.937       7.868       6.791       5.704       4.600       3.473       2.328       1.170      2.5691E-03
  10    9.998       8.935       7.865       6.784       5.692       4.585       3.461       2.321       1.167      2.5622E-03

 HEAD WILL BE SAVED ON UNIT   51 AT END OF TIME STEP   38, STRESS PERIOD    2

 DRAWDOWN WILL BE SAVED ON UNIT   52 AT END OF TIME STEP   38, STRESS PERIOD    2
1
  VOLUMETRIC BUDGET FOR ENTIRE MODEL AT END OF TIME STEP   38, STRESS PERIOD   2
  ------------------------------------------------------------------------------

     CUMULATIVE VOLUMES      L**3       RATES FOR THIS TIME STEP      L**3/T
     ------------------                 ------------------------

           IN:                                      IN:
           ---                                      ---
             STORAGE =           0.0000               STORAGE =           0.0000
       CONSTANT HEAD =           0.0000         CONSTANT HEAD =           0.0000
               WELLS =        3800.0000                 WELLS =         100.0000
     HEAD DEP BOUNDS =       45361.0234       HEAD DEP BOUNDS =        1158.2921

            TOTAL IN =       49161.0234              TOTAL IN =        1258.2921

          OUT:                                     OUT:
          ----                                     ----
             STORAGE =        3458.4944               STORAGE =          78.2497
       CONSTANT HEAD =           0.0000         CONSTANT HEAD =           0.0000
               WELLS =           0.0000                 WELLS =           0.0000
     HEAD DEP BOUNDS =       45702.0586       HEAD DEP BOUNDS =        1180.0355

           TOTAL OUT =       49160.5547             TOTAL OUT =        1258.2852

            IN - OUT =           0.4688              IN - OUT =       6.9580E-03

 PERCENT DISCREPANCY =           0.00     PERCENT DISCREPANCY =           0.00






         TIME SUMMARY AT END OF TIME STEP   38 IN STRESS PERIOD    2
                    SECONDS     MINUTES      HOURS       DAYS        YEARS
                    -----------------------------------------------------------
   TIME STEP LENGTH  86400.      1440.0      24.000      1.0000     2.73785E-03
 STRESS PERIOD TIME 3.28320E+06  54720.      912.00      38.000     0.10404    
         TOTAL TIME 3.36960E+06  56160.      936.00      39.000     0.10678    
1
 
 SOLVING FOR HEAD 

 OUTPUT CONTROL FOR STRESS PERIOD    2   TIME STEP   39
    SAVE HEAD FOR ALL LAYERS
    SAVE DRAWDOWN FOR ALL LAYERS
    SAVE BUDGET
    PRINT HEAD FOR ALL LAYERS
    PRINT BUDGET
 UBDSV1 SAVING "         STORAGE" ON UNIT  53 AT TIME STEP 39, STRESS PERIOD   2
 UBDSV2 SAVING "   CONSTANT HEAD" ON UNIT  53 AT TIME STEP 39, STRESS PERIOD   2
 UBDSV1 SAVING "FLOW RIGHT FACE " ON UNIT  53 AT TIME STEP 39, STRESS PERIOD   2
 UBDSV1 SAVING "FLOW FRONT FACE " ON UNIT  53 AT TIME STEP 39, STRESS PERIOD   2
 UBDSV1 SAVING "FLOW LOWER FACE " ON UNIT  53 AT TIME STEP 39, STRESS PERIOD   2

 SAVING SATURATED THICKNESS AND FLOW TERMS ON UNIT   54 FOR MT3DMS
 BY THE LINK-MT3DMS PACKAGE V7 AT TIME STEP   39, STRESS PERIOD    2

1
              HEAD IN LAYER   1 AT END OF TIME STEP  39 IN STRESS PERIOD    2
  ---------------------------------------------------------------------------

            1           2           3           4           5           6           7           8           9          10
 ........................................................................................................................
   1    9.998       8.937       7.864       6.780       5.684       4.576       3.453       2.317       1.168      1.5229E-03
   2    9.998       8.938       7.866       6.783       5.690       4.582       3.459       2.321       1.170      1.5252E-03
   3    9.998       8.940       7.871       6.792       5.704       4.600       3.473       2.330       1.174      1.5303E-03
   4    9.998       8.943       7.878       6.807       5.731       4.640       3.501       2.345       1.180      1.5388E-03
   5    9.998       8.946       7.886       6.828       5.780       4.737       3.551       2.366       1.188      1.5494E-03
   6    9.998       8.947       7.891       6.845       5.845       5.030       3.618       2.384       1.193      1.5560E-03
   7    9.998       8.946       7.886       6.829       5.781       4.738       3.551       2.367       1.188      1.5495E-03
   8    9.998       8.943       7.878       6.808       5.732       4.641       3.502       2.345       1.180      1.5392E-03
   9    9.998       8.940       7.872       6.794       5.706       4.602       3.475       2.331       1.174      1.5313E-03
  10    9.998       8.939       7.868       6.787       5.694       4.587       3.464       2.324       1.172      1.5273E-03
1
              HEAD IN LAYER   2 AT END OF TIME STEP  39 IN STRESS PERIOD    2
  ---------------------------------------------------------------------------

            1           2           3           4           5           6           7           8           9          10
 ........................................................................................................................
   1    9.998       8.936       7.862       6.778       5.683       4.574       3.452       2.316       1.167      2.5053E-03
   2    9.998       8.937       7.865       6.782       5.689       4.581       3.458       2.320       1.168      2.5091E-03
   3    9.998       8.939       7.869       6.791       5.703       4.599       3.472       2.329       1.172      2.5177E-03
   4    9.998       8.941       7.877       6.807       5.732       4.640       3.501       2.344       1.179      2.5316E-03
   5    9.998       8.945       7.886       6.829       5.781       4.737       3.552       2.366       1.187      2.5487E-03
   6    9.998       8.946       7.891       6.846       5.845       5.072       3.617       2.384       1.192      2.5594E-03
   7    9.998       8.945       7.886       6.829       5.782       4.738       3.552       2.366       1.187      2.5490E-03
   8    9.998       8.942       7.877       6.808       5.733       4.641       3.502       2.345       1.179      2.5323E-03
   9    9.998       8.939       7.870       6.793       5.705       4.602       3.475       2.330       1.173      2.5194E-03
  10    9.998       8.938       7.867       6.786       5.694       4.587       3.463       2.323       1.170      2.5128E-03
1
              HEAD IN LAYER   3 AT END OF TIME STEP  39 IN STRESS PERIOD    2
  ---------------------------------------------------------------------------

            1           2           3           4           5           6           7           8           9          10
 ........................................................................................................................
   1    9.998       8.934       7.861       6.777       5.682       4.573       3.451       2.315       1.165      2.5551E-03
   2    9.998       8.935       7.863       6.781       5.688       4.580       3.457       2.319       1.167      2.5592E-03
   3    9.998       8.937       7.868       6.791       5.703       4.599       3.472       2.328       1.171      2.5683E-03
   4    9.998       8.941       7.876       6.807       5.732       4.640       3.501       2.344       1.178      2.5829E-03
   5    9.998       8.944       7.885       6.829       5.781       4.733       3.551       2.366       1.186      2.6007E-03
   6    9.998       8.945       7.891       6.846       5.841       4.963       3.612       2.383       1.191      2.6117E-03
   7    9.998       8.944       7.886       6.829       5.782       4.733       3.552       2.366       1.186      2.6010E-03
   8    9.998       8.941       7.877       6.808       5.733       4.641       3.502       2.344       1.178      2.5837E-03
   9    9.998       8.938       7.870       6.793       5.705       4.602       3.474       2.329       1.172      2.5701E-03
  10    9.998       8.937       7.866       6.785       5.693       4.586       3.462       2.322       1.169      2.5633E-03
1
              HEAD IN LAYER   4 AT END OF TIME STEP  39 IN STRESS PERIOD    2
  ---------------------------------------------------------------------------

            1           2           3           4           5           6           7           8           9          10
 ........................................................................................................................
   1    9.998       8.934       7.860       6.776       5.681       4.573       3.450       2.314       1.164      2.5552E-03
   2    9.998       8.935       7.863       6.781       5.687       4.580       3.456       2.318       1.166      2.5595E-03
   3    9.998       8.937       7.868       6.790       5.702       4.599       3.471       2.327       1.170      2.5687E-03
   4    9.998       8.940       7.876       6.807       5.732       4.640       3.501       2.343       1.177      2.5837E-03
   5    9.998       8.943       7.885       6.829       5.781       4.728       3.551       2.366       1.185      2.6017E-03
   6    9.998       8.945       7.891       6.846       5.836       4.900       3.607       2.383       1.190      2.6127E-03
   7    9.998       8.943       7.885       6.829       5.781       4.728       3.551       2.366       1.185      2.6020E-03
   8    9.998       8.940       7.876       6.808       5.733       4.641       3.502       2.344       1.177      2.5845E-03
   9    9.998       8.937       7.869       6.792       5.705       4.602       3.474       2.329       1.171      2.5707E-03
  10    9.998       8.936       7.865       6.785       5.693       4.586       3.462       2.322       1.168      2.5637E-03
1
              HEAD IN LAYER   5 AT END OF TIME STEP  39 IN STRESS PERIOD    2
  ---------------------------------------------------------------------------

            1           2           3           4           5           6           7           8           9          10
 ........................................................................................................................
   1    9.998       8.933       7.860       6.776       5.681       4.572       3.450       2.313       1.164      2.5543E-03
   2    9.998       8.934       7.862       6.780       5.687       4.580       3.456       2.317       1.166      2.5586E-03
   3    9.998       8.936       7.868       6.790       5.702       4.599       3.471       2.327       1.170      2.5680E-03
   4    9.998       8.940       7.876       6.807       5.732       4.640       3.501       2.343       1.177      2.5831E-03
   5    9.998       8.943       7.885       6.829       5.781       4.725       3.550       2.366       1.185      2.6012E-03
   6    9.998       8.945       7.891       6.846       5.833       4.871       3.604       2.383       1.190      2.6122E-03
   7    9.998       8.943       7.885       6.829       5.781       4.725       3.551       2.366       1.185      2.6015E-03
   8    9.998       8.940       7.876       6.808       5.733       4.641       3.502       2.344       1.177      2.5839E-03
   9    9.998       8.937       7.869       6.792       5.705       4.601       3.474       2.329       1.171      2.5700E-03
  10    9.998       8.936       7.865       6.785       5.693       4.586       3.462       2.321       1.167      2.5629E-03

 HEAD WILL BE SAVED ON UNIT   51 AT END OF TIME STEP   39, STRESS PERIOD    2

 DRAWDOWN WILL BE SAVED ON UNIT   52 AT END OF TIME STEP   39, STRESS PERIOD    2
1
  VOLUMETRIC BUDGET FOR ENTIRE MODEL AT END OF TIME STEP   39, STRESS PERIOD   2
  ------------------------------------------------------------------------------

     CUMULATIVE VOLUMES      L**3       RATES FOR THIS TIME STEP      L**3/T
     ------------------                 ------------------------

           IN:                                      IN:
           ---                                      ---
             STORAGE =           0.0000               STORAGE =           0.0000
       CONSTANT HEAD =           0.0000         CONSTANT HEAD =           0.0000
               WELLS =        3900.0000                 WELLS =         100.0000
     HEAD DEP BOUNDS =       46519.0039       HEAD DEP BOUNDS =        1157.9801

            TOTAL IN =       50419.0039              TOTAL IN =        1257.9801

          OUT:                                     OUT:
          ----                                     ----
             STORAGE =        3535.9690               STORAGE =          77.4747
       CONSTANT HEAD =           0.0000         CONSTANT HEAD =           0.0000
               WELLS =           0.0000                 WELLS =           0.0000
     HEAD DEP BOUNDS =       46882.5508       HEAD DEP BOUNDS =        1180.4940

           TOTAL OUT =       50418.5195             TOTAL OUT =        1257.9688

            IN - OUT =           0.4844              IN - OUT =       1.1353E-02

 PERCENT DISCREPANCY =           0.00     PERCENT DISCREPANCY =           0.00






         TIME SUMMARY AT END OF TIME STEP   39 IN STRESS PERIOD    2
                    SECONDS     MINUTES      HOURS       DAYS        YEARS
                    -----------------------------------------------------------
   TIME STEP LENGTH  86400.      1440.0      24.000      1.0000     2.73785E-03
 STRESS PERIOD TIME 3.36960E+06  56160.      936.00      39.000     0.10678    
         TOTAL TIME 3.45600E+06  57600.      960.00      40.000     0.10951    
1
 
 SOLVING FOR HEAD 

 OUTPUT CONTROL FOR STRESS PERIOD    2   TIME STEP   40
    SAVE HEAD FOR ALL LAYERS
    SAVE DRAWDOWN FOR ALL LAYERS
    SAVE BUDGET
    PRINT HEAD FOR ALL LAYERS
    PRINT BUDGET
 UBDSV1 SAVING "         STORAGE" ON UNIT  53 AT TIME STEP 40, STRESS PERIOD   2
 UBDSV2 SAVING "   CONSTANT HEAD" ON UNIT  53 AT TIME STEP 40, STRESS PERIOD   2
 UBDSV1 SAVING "FLOW RIGHT FACE " ON UNIT  53 AT TIME STEP 40, STRESS PERIOD   2
 UBDSV1 SAVING "FLOW FRONT FACE " ON UNIT  53 AT TIME STEP 40, STRESS PERIOD   2
 UBDSV1 SAVING "FLOW LOWER FACE " ON UNIT  53 AT TIME STEP 40, STRESS PERIOD   2

 SAVING SATURATED THICKNESS AND FLOW TERMS ON UNIT   54 FOR MT3DMS
 BY THE LINK-MT3DMS PACKAGE V7 AT TIME STEP   40, STRESS PERIOD    2

1
              HEAD IN LAYER   1 AT END OF TIME STEP  40 IN STRESS PERIOD    2
  ---------------------------------------------------------------------------

            1           2           3           4           5           6           7           8           9          10
 ........................................................................................................................
   1    9.998       8.937       7.864       6.780       5.684       4.576       3.454       2.318       1.168      1.5232E-03
   2    9.998       8.938       7.866       6.784       5.690       4.583       3.460       2.322       1.170      1.5255E-03
   3    9.998       8.940       7.871       6.793       5.704       4.601       3.474       2.330       1.174      1.5308E-03
   4    9.998       8.943       7.878       6.808       5.733       4.641       3.503       2.346       1.180      1.5395E-03
   5    9.998       8.946       7.887       6.830       5.782       4.740       3.553       2.368       1.188      1.5503E-03
   6    9.998       8.948       7.892       6.847       5.847       5.033       3.620       2.385       1.193      1.5570E-03
   7    9.998       8.946       7.887       6.830       5.783       4.740       3.553       2.368       1.189      1.5504E-03
   8    9.998       8.943       7.879       6.809       5.734       4.642       3.503       2.346       1.181      1.5399E-03
   9    9.998       8.941       7.872       6.794       5.707       4.603       3.476       2.332       1.175      1.5318E-03
  10    9.998       8.939       7.869       6.788       5.695       4.588       3.464       2.325       1.172      1.5277E-03
1
              HEAD IN LAYER   2 AT END OF TIME STEP  40 IN STRESS PERIOD    2
  ---------------------------------------------------------------------------

            1           2           3           4           5           6           7           8           9          10
 ........................................................................................................................
   1    9.998       8.936       7.863       6.779       5.683       4.575       3.452       2.316       1.167      2.5057E-03
   2    9.998       8.937       7.865       6.783       5.689       4.582       3.458       2.320       1.169      2.5096E-03
   3    9.998       8.939       7.870       6.792       5.704       4.600       3.473       2.329       1.173      2.5184E-03
   4    9.998       8.942       7.878       6.808       5.733       4.642       3.503       2.345       1.179      2.5327E-03
   5    9.998       8.945       7.887       6.830       5.783       4.739       3.553       2.367       1.187      2.5501E-03
   6    9.998       8.947       7.892       6.847       5.847       5.074       3.619       2.385       1.192      2.5609E-03
   7    9.998       8.945       7.887       6.830       5.783       4.740       3.554       2.368       1.187      2.5504E-03
   8    9.998       8.942       7.878       6.809       5.734       4.643       3.504       2.346       1.180      2.5335E-03
   9    9.998       8.939       7.871       6.794       5.706       4.603       3.476       2.331       1.173      2.5202E-03
  10    9.998       8.938       7.867       6.787       5.695       4.588       3.464       2.324       1.170      2.5135E-03
1
              HEAD IN LAYER   3 AT END OF TIME STEP  40 IN STRESS PERIOD    2
  ---------------------------------------------------------------------------

            1           2           3           4           5           6           7           8           9          10
 ........................................................................................................................
   1    9.998       8.935       7.861       6.778       5.682       4.574       3.451       2.315       1.165      2.5556E-03
   2    9.998       8.936       7.864       6.782       5.688       4.581       3.458       2.319       1.167      2.5598E-03
   3    9.998       8.938       7.869       6.791       5.704       4.600       3.473       2.328       1.171      2.5691E-03
   4    9.998       8.941       7.877       6.808       5.733       4.641       3.502       2.345       1.178      2.5840E-03
   5    9.998       8.944       7.886       6.830       5.783       4.734       3.553       2.367       1.186      2.6021E-03
   6    9.998       8.946       7.892       6.847       5.843       4.965       3.614       2.385       1.192      2.6132E-03
   7    9.998       8.944       7.886       6.831       5.783       4.735       3.553       2.367       1.187      2.6024E-03
   8    9.998       8.941       7.878       6.809       5.734       4.643       3.504       2.345       1.179      2.5849E-03
   9    9.998       8.938       7.870       6.793       5.706       4.603       3.475       2.330       1.172      2.5710E-03
  10    9.998       8.937       7.866       6.786       5.694       4.587       3.463       2.323       1.169      2.5640E-03
1
              HEAD IN LAYER   4 AT END OF TIME STEP  40 IN STRESS PERIOD    2
  ---------------------------------------------------------------------------

            1           2           3           4           5           6           7           8           9          10
 ........................................................................................................................
   1    9.998       8.934       7.861       6.777       5.681       4.573       3.451       2.314       1.164      2.5557E-03
   2    9.998       8.935       7.863       6.781       5.688       4.581       3.457       2.318       1.166      2.5600E-03
   3    9.998       8.937       7.868       6.791       5.703       4.600       3.472       2.328       1.171      2.5695E-03
   4    9.998       8.940       7.877       6.808       5.733       4.641       3.502       2.344       1.178      2.5848E-03
   5    9.998       8.944       7.886       6.830       5.783       4.730       3.552       2.367       1.186      2.6031E-03
   6    9.998       8.945       7.892       6.847       5.838       4.902       3.609       2.384       1.191      2.6142E-03
   7    9.998       8.944       7.886       6.831       5.783       4.730       3.553       2.367       1.186      2.6034E-03
   8    9.998       8.941       7.877       6.809       5.734       4.642       3.504       2.345       1.178      2.5857E-03
   9    9.998       8.938       7.870       6.793       5.706       4.603       3.475       2.330       1.171      2.5716E-03
  10    9.998       8.936       7.866       6.786       5.694       4.587       3.463       2.322       1.168      2.5644E-03
1
              HEAD IN LAYER   5 AT END OF TIME STEP  40 IN STRESS PERIOD    2
  ---------------------------------------------------------------------------

            1           2           3           4           5           6           7           8           9          10
 ........................................................................................................................
   1    9.998       8.933       7.860       6.776       5.681       4.573       3.450       2.314       1.164      2.5547E-03
   2    9.998       8.934       7.863       6.781       5.688       4.580       3.457       2.318       1.166      2.5591E-03
   3    9.998       8.937       7.868       6.791       5.703       4.600       3.472       2.327       1.170      2.5688E-03
   4    9.998       8.940       7.876       6.808       5.733       4.641       3.502       2.344       1.177      2.5841E-03
   5    9.998       8.943       7.886       6.830       5.782       4.727       3.552       2.367       1.186      2.6026E-03
   6    9.998       8.945       7.891       6.847       5.835       4.873       3.606       2.384       1.191      2.6137E-03
   7    9.998       8.944       7.886       6.831       5.783       4.727       3.552       2.367       1.186      2.6029E-03
   8    9.998       8.940       7.877       6.809       5.734       4.642       3.503       2.345       1.178      2.5851E-03
   9    9.998       8.937       7.869       6.793       5.706       4.603       3.475       2.329       1.171      2.5709E-03
  10    9.998       8.936       7.865       6.785       5.694       4.587       3.462       2.322       1.168      2.5636E-03

 HEAD WILL BE SAVED ON UNIT   51 AT END OF TIME STEP   40, STRESS PERIOD    2

 DRAWDOWN WILL BE SAVED ON UNIT   52 AT END OF TIME STEP   40, STRESS PERIOD    2
1
  VOLUMETRIC BUDGET FOR ENTIRE MODEL AT END OF TIME STEP   40, STRESS PERIOD   2
  ------------------------------------------------------------------------------

     CUMULATIVE VOLUMES      L**3       RATES FOR THIS TIME STEP      L**3/T
     ------------------                 ------------------------

           IN:                                      IN:
           ---                                      ---
             STORAGE =           0.0000               STORAGE =           0.0000
       CONSTANT HEAD =           0.0000         CONSTANT HEAD =           0.0000
               WELLS =        4000.0000                 WELLS =         100.0000
     HEAD DEP BOUNDS =       47676.6719       HEAD DEP BOUNDS =        1157.6669

            TOTAL IN =       51676.6719              TOTAL IN =        1257.6669

          OUT:                                     OUT:
          ----                                     ----
             STORAGE =        3612.6670               STORAGE =          76.6981
       CONSTANT HEAD =           0.0000         CONSTANT HEAD =           0.0000
               WELLS =           0.0000                 WELLS =           0.0000
     HEAD DEP BOUNDS =       48063.5039       HEAD DEP BOUNDS =        1180.9515

           TOTAL OUT =       51676.1719             TOTAL OUT =        1257.6497

            IN - OUT =           0.5000              IN - OUT =       1.7212E-02

 PERCENT DISCREPANCY =           0.00     PERCENT DISCREPANCY =           0.00






         TIME SUMMARY AT END OF TIME STEP   40 IN STRESS PERIOD    2
                    SECONDS     MINUTES      HOURS       DAYS        YEARS
                    -----------------------------------------------------------
   TIME STEP LENGTH  86400.      1440.0      24.000      1.0000     2.73785E-03
 STRESS PERIOD TIME 3.45600E+06  57600.      960.00      40.000     0.10951    
         TOTAL TIME 3.54240E+06  59040.      984.00      41.000     0.11225    
1
 
 SOLVING FOR HEAD 

 OUTPUT CONTROL FOR STRESS PERIOD    2   TIME STEP   41
    SAVE HEAD FOR ALL LAYERS
    SAVE DRAWDOWN FOR ALL LAYERS
    SAVE BUDGET
    PRINT HEAD FOR ALL LAYERS
    PRINT BUDGET
 UBDSV1 SAVING "         STORAGE" ON UNIT  53 AT TIME STEP 41, STRESS PERIOD   2
 UBDSV2 SAVING "   CONSTANT HEAD" ON UNIT  53 AT TIME STEP 41, STRESS PERIOD   2
 UBDSV1 SAVING "FLOW RIGHT FACE " ON UNIT  53 AT TIME STEP 41, STRESS PERIOD   2
 UBDSV1 SAVING "FLOW FRONT FACE " ON UNIT  53 AT TIME STEP 41, STRESS PERIOD   2
 UBDSV1 SAVING "FLOW LOWER FACE " ON UNIT  53 AT TIME STEP 41, STRESS PERIOD   2

 SAVING SATURATED THICKNESS AND FLOW TERMS ON UNIT   54 FOR MT3DMS
 BY THE LINK-MT3DMS PACKAGE V7 AT TIME STEP   41, STRESS PERIOD    2

1
              HEAD IN LAYER   1 AT END OF TIME STEP  41 IN STRESS PERIOD    2
  ---------------------------------------------------------------------------

            1           2           3           4           5           6           7           8           9          10
 ........................................................................................................................
   1    9.998       8.938       7.864       6.780       5.685       4.577       3.454       2.318       1.169      1.5234E-03
   2    9.998       8.938       7.867       6.784       5.691       4.584       3.460       2.322       1.170      1.5258E-03
   3    9.998       8.940       7.871       6.794       5.705       4.602       3.475       2.331       1.174      1.5312E-03
   4    9.998       8.943       7.879       6.809       5.734       4.643       3.504       2.347       1.181      1.5402E-03
   5    9.998       8.947       7.888       6.831       5.784       4.741       3.555       2.369       1.189      1.5512E-03
   6    9.998       8.948       7.893       6.848       5.849       5.035       3.622       2.387       1.194      1.5580E-03
   7    9.998       8.947       7.888       6.831       5.784       4.742       3.555       2.369       1.189      1.5513E-03
   8    9.998       8.944       7.880       6.810       5.735       4.644       3.505       2.347       1.181      1.5407E-03
   9    9.998       8.941       7.873       6.795       5.708       4.604       3.477       2.333       1.175      1.5323E-03
  10    9.998       8.940       7.869       6.788       5.696       4.589       3.465       2.326       1.172      1.5282E-03
1
              HEAD IN LAYER   2 AT END OF TIME STEP  41 IN STRESS PERIOD    2
  ---------------------------------------------------------------------------

            1           2           3           4           5           6           7           8           9          10
 ........................................................................................................................
   1    9.998       8.936       7.863       6.779       5.684       4.575       3.453       2.317       1.167      2.5061E-03
   2    9.998       8.937       7.865       6.783       5.690       4.583       3.459       2.321       1.169      2.5102E-03
   3    9.998       8.939       7.870       6.793       5.705       4.601       3.474       2.330       1.173      2.5192E-03
   4    9.998       8.942       7.878       6.809       5.734       4.643       3.504       2.346       1.180      2.5338E-03
   5    9.998       8.945       7.887       6.831       5.785       4.741       3.555       2.369       1.188      2.5515E-03
   6    9.998       8.947       7.893       6.849       5.849       5.076       3.621       2.387       1.193      2.5624E-03
   7    9.998       8.945       7.888       6.832       5.785       4.742       3.555       2.369       1.188      2.5518E-03
   8    9.998       8.942       7.879       6.810       5.735       4.644       3.505       2.347       1.180      2.5346E-03
   9    9.998       8.940       7.872       6.795       5.708       4.604       3.477       2.332       1.174      2.5211E-03
  10    9.998       8.938       7.868       6.787       5.695       4.589       3.465       2.324       1.171      2.5143E-03
1
              HEAD IN LAYER   3 AT END OF TIME STEP  41 IN STRESS PERIOD    2
  ---------------------------------------------------------------------------

            1           2           3           4           5           6           7           8           9          10
 ........................................................................................................................
   1    9.998       8.935       7.862       6.778       5.683       4.574       3.452       2.315       1.165      2.5560E-03
   2    9.998       8.936       7.864       6.782       5.689       4.582       3.458       2.319       1.167      2.5603E-03
   3    9.998       8.938       7.869       6.792       5.705       4.601       3.474       2.329       1.172      2.5698E-03
   4    9.998       8.941       7.878       6.809       5.735       4.643       3.504       2.346       1.179      2.5851E-03
   5    9.998       8.945       7.887       6.832       5.785       4.736       3.555       2.368       1.187      2.6035E-03
   6    9.998       8.946       7.893       6.849       5.844       4.967       3.616       2.386       1.192      2.6147E-03
   7    9.998       8.945       7.887       6.832       5.785       4.737       3.555       2.369       1.187      2.6038E-03
   8    9.998       8.941       7.878       6.810       5.736       4.644       3.505       2.346       1.179      2.5860E-03
   9    9.998       8.939       7.871       6.794       5.707       4.604       3.476       2.331       1.173      2.5719E-03
  10    9.998       8.937       7.867       6.787       5.695       4.588       3.464       2.323       1.169      2.5647E-03
1
              HEAD IN LAYER   4 AT END OF TIME STEP  41 IN STRESS PERIOD    2
  ---------------------------------------------------------------------------

            1           2           3           4           5           6           7           8           9          10
 ........................................................................................................................
   1    9.998       8.934       7.861       6.777       5.682       4.574       3.451       2.314       1.164      2.5561E-03
   2    9.998       8.935       7.863       6.782       5.689       4.581       3.458       2.319       1.166      2.5605E-03
   3    9.998       8.937       7.869       6.792       5.704       4.601       3.473       2.328       1.171      2.5703E-03
   4    9.998       8.941       7.877       6.809       5.735       4.643       3.504       2.345       1.178      2.5858E-03
   5    9.998       8.944       7.887       6.832       5.784       4.731       3.554       2.368       1.186      2.6044E-03
   6    9.998       8.946       7.892       6.849       5.840       4.904       3.610       2.385       1.192      2.6157E-03
   7    9.998       8.944       7.887       6.832       5.785       4.732       3.554       2.368       1.187      2.6048E-03
   8    9.998       8.941       7.878       6.810       5.736       4.644       3.505       2.346       1.178      2.5868E-03
   9    9.998       8.938       7.870       6.794       5.707       4.604       3.476       2.330       1.172      2.5725E-03
  10    9.998       8.936       7.866       6.786       5.695       4.588       3.463       2.323       1.169      2.5652E-03
1
              HEAD IN LAYER   5 AT END OF TIME STEP  41 IN STRESS PERIOD    2
  ---------------------------------------------------------------------------

            1           2           3           4           5           6           7           8           9          10
 ........................................................................................................................
   1    9.998       8.934       7.860       6.777       5.682       4.573       3.451       2.314       1.164      2.5552E-03
   2    9.998       8.935       7.863       6.781       5.688       4.581       3.457       2.318       1.166      2.5597E-03
   3    9.998       8.937       7.869       6.792       5.704       4.601       3.473       2.328       1.171      2.5695E-03
   4    9.998       8.940       7.877       6.809       5.735       4.642       3.504       2.345       1.178      2.5852E-03
   5    9.998       8.944       7.887       6.832       5.784       4.728       3.554       2.368       1.186      2.6039E-03
   6    9.998       8.946       7.892       6.849       5.837       4.875       3.607       2.385       1.191      2.6152E-03
   7    9.998       8.944       7.887       6.832       5.784       4.729       3.554       2.368       1.186      2.6043E-03
   8    9.998       8.941       7.878       6.810       5.736       4.644       3.505       2.346       1.178      2.5862E-03
   9    9.998       8.938       7.870       6.794       5.707       4.604       3.476       2.330       1.172      2.5718E-03
  10    9.998       8.936       7.866       6.786       5.694       4.588       3.463       2.323       1.168      2.5644E-03

 HEAD WILL BE SAVED ON UNIT   51 AT END OF TIME STEP   41, STRESS PERIOD    2

 DRAWDOWN WILL BE SAVED ON UNIT   52 AT END OF TIME STEP   41, STRESS PERIOD    2
1
  VOLUMETRIC BUDGET FOR ENTIRE MODEL AT END OF TIME STEP   41, STRESS PERIOD   2
  ------------------------------------------------------------------------------

     CUMULATIVE VOLUMES      L**3       RATES FOR THIS TIME STEP      L**3/T
     ------------------                 ------------------------

           IN:                                      IN:
           ---                                      ---
             STORAGE =           0.0000               STORAGE =           0.0000
       CONSTANT HEAD =           0.0000         CONSTANT HEAD =           0.0000
               WELLS =        4100.0000                 WELLS =         100.0000
     HEAD DEP BOUNDS =       48834.0234       HEAD DEP BOUNDS =        1157.3525

            TOTAL IN =       52934.0234              TOTAL IN =        1257.3525

          OUT:                                     OUT:
          ----                                     ----
             STORAGE =        3688.5964               STORAGE =          75.9294
       CONSTANT HEAD =           0.0000         CONSTANT HEAD =           0.0000
               WELLS =           0.0000                 WELLS =           0.0000
     HEAD DEP BOUNDS =       49244.9062       HEAD DEP BOUNDS =        1181.4033

           TOTAL OUT =       52933.5039             TOTAL OUT =        1257.3328

            IN - OUT =           0.5195              IN - OUT =       1.9775E-02

 PERCENT DISCREPANCY =           0.00     PERCENT DISCREPANCY =           0.00






         TIME SUMMARY AT END OF TIME STEP   41 IN STRESS PERIOD    2
                    SECONDS     MINUTES      HOURS       DAYS        YEARS
                    -----------------------------------------------------------
   TIME STEP LENGTH  86400.      1440.0      24.000      1.0000     2.73785E-03
 STRESS PERIOD TIME 3.54240E+06  59040.      984.00      41.000     0.11225    
         TOTAL TIME 3.62880E+06  60480.      1008.0      42.000     0.11499    
1
 
 SOLVING FOR HEAD 

 OUTPUT CONTROL FOR STRESS PERIOD    2   TIME STEP   42
    SAVE HEAD FOR ALL LAYERS
    SAVE DRAWDOWN FOR ALL LAYERS
    SAVE BUDGET
    PRINT HEAD FOR ALL LAYERS
    PRINT BUDGET
 UBDSV1 SAVING "         STORAGE" ON UNIT  53 AT TIME STEP 42, STRESS PERIOD   2
 UBDSV2 SAVING "   CONSTANT HEAD" ON UNIT  53 AT TIME STEP 42, STRESS PERIOD   2
 UBDSV1 SAVING "FLOW RIGHT FACE " ON UNIT  53 AT TIME STEP 42, STRESS PERIOD   2
 UBDSV1 SAVING "FLOW FRONT FACE " ON UNIT  53 AT TIME STEP 42, STRESS PERIOD   2
 UBDSV1 SAVING "FLOW LOWER FACE " ON UNIT  53 AT TIME STEP 42, STRESS PERIOD   2

 SAVING SATURATED THICKNESS AND FLOW TERMS ON UNIT   54 FOR MT3DMS
 BY THE LINK-MT3DMS PACKAGE V7 AT TIME STEP   42, STRESS PERIOD    2

1
              HEAD IN LAYER   1 AT END OF TIME STEP  42 IN STRESS PERIOD    2
  ---------------------------------------------------------------------------

            1           2           3           4           5           6           7           8           9          10
 ........................................................................................................................
   1    9.998       8.938       7.865       6.781       5.685       4.577       3.455       2.318       1.169      1.5236E-03
   2    9.998       8.939       7.867       6.785       5.692       4.584       3.461       2.322       1.171      1.5261E-03
   3    9.998       8.941       7.872       6.794       5.706       4.603       3.476       2.332       1.175      1.5318E-03
   4    9.998       8.944       7.880       6.810       5.736       4.644       3.505       2.348       1.182      1.5409E-03
   5    9.998       8.947       7.889       6.832       5.786       4.743       3.557       2.370       1.190      1.5521E-03
   6    9.998       8.949       7.894       6.850       5.851       5.037       3.624       2.388       1.195      1.5590E-03
   7    9.998       8.947       7.889       6.833       5.786       4.744       3.557       2.370       1.190      1.5522E-03
   8    9.998       8.944       7.880       6.811       5.737       4.645       3.506       2.348       1.182      1.5414E-03
   9    9.998       8.941       7.873       6.796       5.709       4.605       3.478       2.333       1.176      1.5329E-03
  10    9.998       8.940       7.869       6.789       5.697       4.590       3.466       2.326       1.172      1.5286E-03
1
              HEAD IN LAYER   2 AT END OF TIME STEP  42 IN STRESS PERIOD    2
  ---------------------------------------------------------------------------

            1           2           3           4           5           6           7           8           9          10
 ........................................................................................................................
   1    9.998       8.936       7.863       6.779       5.684       4.576       3.453       2.317       1.167      2.5065E-03
   2    9.998       8.937       7.866       6.784       5.691       4.583       3.460       2.321       1.169      2.5107E-03
   3    9.998       8.939       7.871       6.794       5.706       4.602       3.475       2.331       1.173      2.5200E-03
   4    9.998       8.942       7.879       6.810       5.736       4.644       3.505       2.347       1.180      2.5349E-03
   5    9.998       8.946       7.888       6.833       5.786       4.743       3.557       2.370       1.189      2.5528E-03
   6    9.998       8.948       7.894       6.850       5.851       5.078       3.623       2.388       1.194      2.5639E-03
   7    9.998       8.946       7.889       6.833       5.787       4.743       3.557       2.370       1.189      2.5531E-03
   8    9.998       8.943       7.880       6.811       5.737       4.646       3.506       2.348       1.181      2.5357E-03
   9    9.998       8.940       7.872       6.796       5.709       4.605       3.478       2.332       1.174      2.5220E-03
  10    9.998       8.938       7.868       6.788       5.696       4.590       3.465       2.325       1.171      2.5150E-03
1
              HEAD IN LAYER   3 AT END OF TIME STEP  42 IN STRESS PERIOD    2
  ---------------------------------------------------------------------------

            1           2           3           4           5           6           7           8           9          10
 ........................................................................................................................
   1    9.998       8.935       7.862       6.778       5.683       4.575       3.452       2.316       1.166      2.5564E-03
   2    9.998       8.936       7.864       6.783       5.690       4.583       3.459       2.320       1.168      2.5609E-03
   3    9.998       8.938       7.870       6.793       5.706       4.602       3.475       2.330       1.172      2.5706E-03
   4    9.998       8.942       7.878       6.810       5.736       4.644       3.505       2.347       1.179      2.5862E-03
   5    9.998       8.945       7.888       6.833       5.786       4.738       3.556       2.369       1.188      2.6048E-03
   6    9.998       8.947       7.893       6.850       5.846       4.969       3.617       2.387       1.193      2.6161E-03
   7    9.998       8.945       7.888       6.833       5.787       4.739       3.557       2.370       1.188      2.6052E-03
   8    9.998       8.942       7.879       6.811       5.737       4.646       3.506       2.347       1.180      2.5872E-03
   9    9.998       8.939       7.871       6.795       5.708       4.605       3.477       2.332       1.173      2.5728E-03
  10    9.998       8.937       7.867       6.787       5.696       4.589       3.465       2.324       1.170      2.5655E-03
1
              HEAD IN LAYER   4 AT END OF TIME STEP  42 IN STRESS PERIOD    2
  ---------------------------------------------------------------------------

            1           2           3           4           5           6           7           8           9          10
 ........................................................................................................................
   1    9.998       8.934       7.861       6.778       5.682       4.574       3.451       2.315       1.165      2.5565E-03
   2    9.998       8.935       7.864       6.782       5.689       4.582       3.458       2.319       1.167      2.5611E-03
   3    9.998       8.938       7.869       6.793       5.705       4.602       3.474       2.329       1.171      2.5711E-03
   4    9.998       8.941       7.878       6.810       5.736       4.644       3.505       2.346       1.178      2.5869E-03
   5    9.998       8.944       7.888       6.833       5.786       4.733       3.556       2.369       1.187      2.6058E-03
   6    9.998       8.946       7.893       6.850       5.842       4.906       3.612       2.387       1.192      2.6171E-03
   7    9.998       8.945       7.888       6.833       5.786       4.734       3.556       2.370       1.187      2.6061E-03
   8    9.998       8.941       7.879       6.811       5.737       4.645       3.506       2.347       1.179      2.5879E-03
   9    9.998       8.938       7.871       6.795       5.708       4.605       3.477       2.331       1.172      2.5734E-03
  10    9.998       8.937       7.867       6.787       5.696       4.589       3.464       2.323       1.169      2.5659E-03
1
              HEAD IN LAYER   5 AT END OF TIME STEP  42 IN STRESS PERIOD    2
  ---------------------------------------------------------------------------

            1           2           3           4           5           6           7           8           9          10
 ........................................................................................................................
   1    9.998       8.934       7.861       6.777       5.682       4.574       3.451       2.314       1.164      2.5556E-03
   2    9.998       8.935       7.863       6.782       5.689       4.582       3.458       2.319       1.166      2.5602E-03
   3    9.998       8.937       7.869       6.792       5.705       4.602       3.474       2.329       1.171      2.5703E-03
   4    9.998       8.941       7.878       6.810       5.736       4.644       3.505       2.346       1.178      2.5863E-03
   5    9.998       8.944       7.887       6.833       5.786       4.730       3.555       2.369       1.187      2.6052E-03
   6    9.998       8.946       7.893       6.850       5.839       4.877       3.609       2.386       1.192      2.6166E-03
   7    9.998       8.944       7.888       6.833       5.786       4.731       3.556       2.369       1.187      2.6056E-03
   8    9.998       8.941       7.878       6.811       5.737       4.645       3.506       2.347       1.179      2.5873E-03
   9    9.998       8.938       7.871       6.795       5.708       4.605       3.477       2.331       1.172      2.5727E-03
  10    9.998       8.936       7.866       6.787       5.695       4.589       3.464       2.323       1.169      2.5651E-03

 HEAD WILL BE SAVED ON UNIT   51 AT END OF TIME STEP   42, STRESS PERIOD    2

 DRAWDOWN WILL BE SAVED ON UNIT   52 AT END OF TIME STEP   42, STRESS PERIOD    2
1
  VOLUMETRIC BUDGET FOR ENTIRE MODEL AT END OF TIME STEP   42, STRESS PERIOD   2
  ------------------------------------------------------------------------------

     CUMULATIVE VOLUMES      L**3       RATES FOR THIS TIME STEP      L**3/T
     ------------------                 ------------------------

           IN:                                      IN:
           ---                                      ---
             STORAGE =           0.0000               STORAGE =           0.0000
       CONSTANT HEAD =           0.0000         CONSTANT HEAD =           0.0000
               WELLS =        4200.0000                 WELLS =         100.0000
     HEAD DEP BOUNDS =       49991.0469       HEAD DEP BOUNDS =        1157.0233

            TOTAL IN =       54191.0469              TOTAL IN =        1257.0233

          OUT:                                     OUT:
          ----                                     ----
             STORAGE =        3763.7495               STORAGE =          75.1531
       CONSTANT HEAD =           0.0000         CONSTANT HEAD =           0.0000
               WELLS =           0.0000                 WELLS =           0.0000
     HEAD DEP BOUNDS =       50426.7617       HEAD DEP BOUNDS =        1181.8536

           TOTAL OUT =       54190.5117             TOTAL OUT =        1257.0067

            IN - OUT =           0.5352              IN - OUT =       1.6602E-02

 PERCENT DISCREPANCY =           0.00     PERCENT DISCREPANCY =           0.00






         TIME SUMMARY AT END OF TIME STEP   42 IN STRESS PERIOD    2
                    SECONDS     MINUTES      HOURS       DAYS        YEARS
                    -----------------------------------------------------------
   TIME STEP LENGTH  86400.      1440.0      24.000      1.0000     2.73785E-03
 STRESS PERIOD TIME 3.62880E+06  60480.      1008.0      42.000     0.11499    
         TOTAL TIME 3.71520E+06  61920.      1032.0      43.000     0.11773    
1
 
 SOLVING FOR HEAD 

 OUTPUT CONTROL FOR STRESS PERIOD    2   TIME STEP   43
    SAVE HEAD FOR ALL LAYERS
    SAVE DRAWDOWN FOR ALL LAYERS
    SAVE BUDGET
    PRINT HEAD FOR ALL LAYERS
    PRINT BUDGET
 UBDSV1 SAVING "         STORAGE" ON UNIT  53 AT TIME STEP 43, STRESS PERIOD   2
 UBDSV2 SAVING "   CONSTANT HEAD" ON UNIT  53 AT TIME STEP 43, STRESS PERIOD   2
 UBDSV1 SAVING "FLOW RIGHT FACE " ON UNIT  53 AT TIME STEP 43, STRESS PERIOD   2
 UBDSV1 SAVING "FLOW FRONT FACE " ON UNIT  53 AT TIME STEP 43, STRESS PERIOD   2
 UBDSV1 SAVING "FLOW LOWER FACE " ON UNIT  53 AT TIME STEP 43, STRESS PERIOD   2

 SAVING SATURATED THICKNESS AND FLOW TERMS ON UNIT   54 FOR MT3DMS
 BY THE LINK-MT3DMS PACKAGE V7 AT TIME STEP   43, STRESS PERIOD    2

1
              HEAD IN LAYER   1 AT END OF TIME STEP  43 IN STRESS PERIOD    2
  ---------------------------------------------------------------------------

            1           2           3           4           5           6           7           8           9          10
 ........................................................................................................................
   1    9.998       8.938       7.865       6.781       5.686       4.578       3.455       2.319       1.169      1.5239E-03
   2    9.998       8.939       7.867       6.785       5.692       4.585       3.461       2.323       1.171      1.5264E-03
   3    9.998       8.941       7.872       6.795       5.707       4.604       3.477       2.332       1.175      1.5322E-03
   4    9.998       8.944       7.880       6.811       5.737       4.646       3.507       2.349       1.182      1.5416E-03
   5    9.998       8.947       7.890       6.834       5.787       4.745       3.558       2.371       1.190      1.5528E-03
   6    9.998       8.949       7.895       6.851       5.852       5.039       3.626       2.390       1.195      1.5599E-03
   7    9.998       8.947       7.890       6.834       5.788       4.746       3.559       2.372       1.190      1.5531E-03
   8    9.998       8.944       7.881       6.812       5.738       4.647       3.508       2.350       1.182      1.5421E-03
   9    9.998       8.942       7.874       6.797       5.710       4.607       3.479       2.334       1.176      1.5334E-03
  10    9.998       8.940       7.870       6.790       5.698       4.591       3.467       2.327       1.173      1.5291E-03
1
              HEAD IN LAYER   2 AT END OF TIME STEP  43 IN STRESS PERIOD    2
  ---------------------------------------------------------------------------

            1           2           3           4           5           6           7           8           9          10
 ........................................................................................................................
   1    9.998       8.936       7.863       6.780       5.685       4.576       3.454       2.317       1.167      2.5069E-03
   2    9.998       8.937       7.866       6.784       5.691       4.584       3.460       2.322       1.169      2.5112E-03
   3    9.998       8.939       7.871       6.794       5.707       4.603       3.476       2.331       1.174      2.5207E-03
   4    9.998       8.943       7.880       6.811       5.737       4.646       3.506       2.348       1.181      2.5359E-03
   5    9.998       8.946       7.889       6.834       5.788       4.745       3.558       2.371       1.189      2.5541E-03
   6    9.998       8.948       7.895       6.852       5.853       5.080       3.624       2.389       1.194      2.5653E-03
   7    9.998       8.946       7.889       6.834       5.788       4.745       3.559       2.371       1.189      2.5545E-03
   8    9.998       8.943       7.880       6.812       5.738       4.647       3.508       2.349       1.181      2.5369E-03
   9    9.998       8.940       7.873       6.796       5.710       4.606       3.479       2.333       1.175      2.5229E-03
  10    9.998       8.939       7.869       6.789       5.697       4.591       3.466       2.326       1.171      2.5157E-03
1
              HEAD IN LAYER   3 AT END OF TIME STEP  43 IN STRESS PERIOD    2
  ---------------------------------------------------------------------------

            1           2           3           4           5           6           7           8           9          10
 ........................................................................................................................
   1    9.998       8.935       7.862       6.779       5.684       4.575       3.453       2.316       1.166      2.5568E-03
   2    9.998       8.936       7.865       6.783       5.690       4.583       3.459       2.320       1.168      2.5614E-03
   3    9.998       8.938       7.870       6.794       5.706       4.603       3.475       2.330       1.172      2.5714E-03
   4    9.998       8.942       7.879       6.811       5.737       4.646       3.506       2.348       1.180      2.5873E-03
   5    9.998       8.945       7.889       6.834       5.788       4.740       3.558       2.371       1.188      2.6061E-03
   6    9.998       8.947       7.894       6.852       5.848       4.971       3.619       2.388       1.194      2.6176E-03
   7    9.998       8.945       7.889       6.834       5.788       4.740       3.558       2.371       1.188      2.6065E-03
   8    9.998       8.942       7.880       6.812       5.738       4.647       3.508       2.348       1.180      2.5883E-03
   9    9.998       8.939       7.872       6.796       5.709       4.606       3.478       2.332       1.173      2.5737E-03
  10    9.998       8.938       7.868       6.788       5.697       4.590       3.466       2.325       1.170      2.5662E-03
1
              HEAD IN LAYER   4 AT END OF TIME STEP  43 IN STRESS PERIOD    2
  ---------------------------------------------------------------------------

            1           2           3           4           5           6           7           8           9          10
 ........................................................................................................................
   1    9.998       8.934       7.861       6.778       5.683       4.575       3.452       2.315       1.165      2.5569E-03
   2    9.998       8.935       7.864       6.783       5.690       4.583       3.459       2.320       1.167      2.5616E-03
   3    9.998       8.938       7.870       6.793       5.706       4.603       3.475       2.330       1.172      2.5719E-03
   4    9.998       8.941       7.879       6.811       5.737       4.645       3.506       2.347       1.179      2.5880E-03
   5    9.998       8.945       7.888       6.834       5.787       4.735       3.557       2.370       1.188      2.6071E-03
   6    9.998       8.947       7.894       6.851       5.843       4.908       3.614       2.388       1.193      2.6185E-03
   7    9.998       8.945       7.889       6.834       5.788       4.735       3.558       2.371       1.188      2.6075E-03
   8    9.998       8.942       7.879       6.812       5.738       4.647       3.507       2.348       1.179      2.5891E-03
   9    9.998       8.939       7.871       6.796       5.709       4.606       3.478       2.332       1.173      2.5743E-03
  10    9.998       8.937       7.867       6.788       5.696       4.590       3.465       2.324       1.169      2.5667E-03
1
              HEAD IN LAYER   5 AT END OF TIME STEP  43 IN STRESS PERIOD    2
  ---------------------------------------------------------------------------

            1           2           3           4           5           6           7           8           9          10
 ........................................................................................................................
   1    9.998       8.934       7.861       6.778       5.683       4.574       3.452       2.315       1.164      2.5560E-03
   2    9.998       8.935       7.864       6.782       5.690       4.582       3.458       2.319       1.167      2.5608E-03
   3    9.998       8.937       7.870       6.793       5.706       4.603       3.475       2.329       1.171      2.5711E-03
   4    9.998       8.941       7.878       6.811       5.737       4.645       3.506       2.347       1.179      2.5873E-03
   5    9.998       8.945       7.888       6.834       5.787       4.732       3.557       2.370       1.187      2.6065E-03
   6    9.998       8.946       7.894       6.851       5.840       4.879       3.611       2.388       1.193      2.6180E-03
   7    9.998       8.945       7.889       6.834       5.788       4.732       3.557       2.371       1.188      2.6069E-03
   8    9.998       8.941       7.879       6.812       5.738       4.647       3.507       2.348       1.179      2.5884E-03
   9    9.998       8.938       7.871       6.796       5.709       4.606       3.478       2.332       1.172      2.5735E-03
  10    9.998       8.937       7.867       6.787       5.696       4.590       3.465       2.324       1.169      2.5659E-03

 HEAD WILL BE SAVED ON UNIT   51 AT END OF TIME STEP   43, STRESS PERIOD    2

 DRAWDOWN WILL BE SAVED ON UNIT   52 AT END OF TIME STEP   43, STRESS PERIOD    2
1
  VOLUMETRIC BUDGET FOR ENTIRE MODEL AT END OF TIME STEP   43, STRESS PERIOD   2
  ------------------------------------------------------------------------------

     CUMULATIVE VOLUMES      L**3       RATES FOR THIS TIME STEP      L**3/T
     ------------------                 ------------------------

           IN:                                      IN:
           ---                                      ---
             STORAGE =           0.0000               STORAGE =           0.0000
       CONSTANT HEAD =           0.0000         CONSTANT HEAD =           0.0000
               WELLS =        4300.0000                 WELLS =         100.0000
     HEAD DEP BOUNDS =       51147.7461       HEAD DEP BOUNDS =        1156.7009

            TOTAL IN =       55447.7461              TOTAL IN =        1256.7009

          OUT:                                     OUT:
          ----                                     ----
             STORAGE =        3838.1345               STORAGE =          74.3850
       CONSTANT HEAD =           0.0000         CONSTANT HEAD =           0.0000
               WELLS =           0.0000                 WELLS =           0.0000
     HEAD DEP BOUNDS =       51609.0625       HEAD DEP BOUNDS =        1182.2988

           TOTAL OUT =       55447.1953             TOTAL OUT =        1256.6838

            IN - OUT =           0.5508              IN - OUT =       1.7090E-02

 PERCENT DISCREPANCY =           0.00     PERCENT DISCREPANCY =           0.00






         TIME SUMMARY AT END OF TIME STEP   43 IN STRESS PERIOD    2
                    SECONDS     MINUTES      HOURS       DAYS        YEARS
                    -----------------------------------------------------------
   TIME STEP LENGTH  86400.      1440.0      24.000      1.0000     2.73785E-03
 STRESS PERIOD TIME 3.71520E+06  61920.      1032.0      43.000     0.11773    
         TOTAL TIME 3.80160E+06  63360.      1056.0      44.000     0.12047    
1
 
 SOLVING FOR HEAD 

 OUTPUT CONTROL FOR STRESS PERIOD    2   TIME STEP   44
    SAVE HEAD FOR ALL LAYERS
    SAVE DRAWDOWN FOR ALL LAYERS
    SAVE BUDGET
    PRINT HEAD FOR ALL LAYERS
    PRINT BUDGET
 UBDSV1 SAVING "         STORAGE" ON UNIT  53 AT TIME STEP 44, STRESS PERIOD   2
 UBDSV2 SAVING "   CONSTANT HEAD" ON UNIT  53 AT TIME STEP 44, STRESS PERIOD   2
 UBDSV1 SAVING "FLOW RIGHT FACE " ON UNIT  53 AT TIME STEP 44, STRESS PERIOD   2
 UBDSV1 SAVING "FLOW FRONT FACE " ON UNIT  53 AT TIME STEP 44, STRESS PERIOD   2
 UBDSV1 SAVING "FLOW LOWER FACE " ON UNIT  53 AT TIME STEP 44, STRESS PERIOD   2

 SAVING SATURATED THICKNESS AND FLOW TERMS ON UNIT   54 FOR MT3DMS
 BY THE LINK-MT3DMS PACKAGE V7 AT TIME STEP   44, STRESS PERIOD    2

1
              HEAD IN LAYER   1 AT END OF TIME STEP  44 IN STRESS PERIOD    2
  ---------------------------------------------------------------------------

            1           2           3           4           5           6           7           8           9          10
 ........................................................................................................................
   1    9.998       8.938       7.865       6.782       5.686       4.578       3.456       2.319       1.169      1.5242E-03
   2    9.998       8.939       7.868       6.786       5.693       4.586       3.462       2.323       1.171      1.5268E-03
   3    9.998       8.941       7.873       6.796       5.708       4.605       3.478       2.333       1.175      1.5327E-03
   4    9.998       8.944       7.881       6.813       5.738       4.647       3.508       2.350       1.183      1.5422E-03
   5    9.998       8.948       7.890       6.835       5.789       4.747       3.560       2.373       1.191      1.5537E-03
   6    9.998       8.949       7.896       6.853       5.854       5.041       3.627       2.391       1.196      1.5608E-03
   7    9.998       8.948       7.891       6.835       5.789       4.748       3.560       2.373       1.191      1.5540E-03
   8    9.998       8.945       7.882       6.813       5.739       4.648       3.509       2.351       1.183      1.5428E-03
   9    9.998       8.942       7.874       6.798       5.711       4.608       3.480       2.335       1.176      1.5340E-03
  10    9.998       8.940       7.870       6.790       5.699       4.592       3.468       2.327       1.173      1.5295E-03
1
              HEAD IN LAYER   2 AT END OF TIME STEP  44 IN STRESS PERIOD    2
  ---------------------------------------------------------------------------

            1           2           3           4           5           6           7           8           9          10
 ........................................................................................................................
   1    9.998       8.936       7.864       6.780       5.685       4.577       3.454       2.318       1.167      2.5073E-03
   2    9.998       8.937       7.866       6.785       5.692       4.585       3.461       2.322       1.170      2.5118E-03
   3    9.998       8.940       7.872       6.795       5.708       4.604       3.477       2.332       1.174      2.5215E-03
   4    9.998       8.943       7.880       6.812       5.738       4.647       3.508       2.349       1.181      2.5370E-03
   5    9.998       8.947       7.890       6.835       5.790       4.746       3.560       2.372       1.190      2.5555E-03
   6    9.998       8.948       7.896       6.853       5.854       5.082       3.626       2.390       1.195      2.5667E-03
   7    9.998       8.947       7.890       6.836       5.790       4.747       3.560       2.373       1.190      2.5558E-03
   8    9.998       8.943       7.881       6.813       5.740       4.649       3.509       2.350       1.182      2.5380E-03
   9    9.998       8.940       7.873       6.797       5.711       4.608       3.480       2.334       1.175      2.5237E-03
  10    9.998       8.939       7.869       6.790       5.698       4.592       3.467       2.326       1.172      2.5164E-03
1
              HEAD IN LAYER   3 AT END OF TIME STEP  44 IN STRESS PERIOD    2
  ---------------------------------------------------------------------------

            1           2           3           4           5           6           7           8           9          10
 ........................................................................................................................
   1    9.998       8.935       7.862       6.779       5.684       4.576       3.453       2.316       1.166      2.5572E-03
   2    9.998       8.936       7.865       6.784       5.691       4.584       3.460       2.321       1.168      2.5620E-03
   3    9.998       8.939       7.871       6.794       5.707       4.604       3.476       2.331       1.173      2.5722E-03
   4    9.998       8.942       7.880       6.812       5.738       4.647       3.508       2.348       1.180      2.5883E-03
   5    9.998       8.946       7.889       6.835       5.789       4.741       3.559       2.372       1.189      2.6074E-03
   6    9.998       8.948       7.895       6.853       5.850       4.973       3.621       2.390       1.194      2.6190E-03
   7    9.998       8.946       7.890       6.836       5.790       4.742       3.560       2.372       1.189      2.6078E-03
   8    9.998       8.943       7.880       6.813       5.740       4.648       3.509       2.349       1.181      2.5894E-03
   9    9.998       8.939       7.872       6.797       5.710       4.607       3.479       2.333       1.174      2.5746E-03
  10    9.998       8.938       7.868       6.789       5.698       4.591       3.466       2.325       1.170      2.5670E-03
1
              HEAD IN LAYER   4 AT END OF TIME STEP  44 IN STRESS PERIOD    2
  ---------------------------------------------------------------------------

            1           2           3           4           5           6           7           8           9          10
 ........................................................................................................................
   1    9.998       8.934       7.862       6.778       5.684       4.575       3.452       2.315       1.165      2.5574E-03
   2    9.998       8.936       7.864       6.783       5.691       4.583       3.459       2.320       1.167      2.5622E-03
   3    9.998       8.938       7.870       6.794       5.707       4.604       3.476       2.330       1.172      2.5726E-03
   4    9.998       8.942       7.879       6.812       5.738       4.647       3.507       2.348       1.179      2.5890E-03
   5    9.998       8.945       7.889       6.835       5.789       4.736       3.559       2.371       1.188      2.6083E-03
   6    9.998       8.947       7.895       6.853       5.845       4.909       3.615       2.389       1.194      2.6199E-03
   7    9.998       8.945       7.889       6.836       5.789       4.737       3.559       2.372       1.188      2.6088E-03
   8    9.998       8.942       7.880       6.813       5.740       4.648       3.509       2.349       1.180      2.5902E-03
   9    9.998       8.939       7.872       6.797       5.710       4.607       3.479       2.333       1.173      2.5752E-03
  10    9.998       8.937       7.868       6.788       5.697       4.591       3.466       2.325       1.170      2.5674E-03
1
              HEAD IN LAYER   5 AT END OF TIME STEP  44 IN STRESS PERIOD    2
  ---------------------------------------------------------------------------

            1           2           3           4           5           6           7           8           9          10
 ........................................................................................................................
   1    9.998       8.934       7.861       6.778       5.683       4.575       3.452       2.315       1.165      2.5565E-03
   2    9.998       8.935       7.864       6.783       5.690       4.583       3.459       2.320       1.167      2.5613E-03
   3    9.998       8.938       7.870       6.794       5.707       4.604       3.476       2.330       1.172      2.5719E-03
   4    9.998       8.941       7.879       6.812       5.738       4.646       3.507       2.348       1.179      2.5884E-03
   5    9.998       8.945       7.889       6.835       5.789       4.733       3.558       2.371       1.188      2.6078E-03
   6    9.998       8.947       7.895       6.852       5.842       4.880       3.612       2.389       1.193      2.6193E-03
   7    9.998       8.945       7.889       6.836       5.789       4.734       3.559       2.372       1.188      2.6082E-03
   8    9.998       8.942       7.880       6.813       5.740       4.648       3.509       2.349       1.180      2.5895E-03
   9    9.998       8.939       7.872       6.796       5.710       4.607       3.479       2.332       1.173      2.5744E-03
  10    9.998       8.937       7.867       6.788       5.697       4.591       3.466       2.324       1.169      2.5666E-03

 HEAD WILL BE SAVED ON UNIT   51 AT END OF TIME STEP   44, STRESS PERIOD    2

 DRAWDOWN WILL BE SAVED ON UNIT   52 AT END OF TIME STEP   44, STRESS PERIOD    2
1
  VOLUMETRIC BUDGET FOR ENTIRE MODEL AT END OF TIME STEP   44, STRESS PERIOD   2
  ------------------------------------------------------------------------------

     CUMULATIVE VOLUMES      L**3       RATES FOR THIS TIME STEP      L**3/T
     ------------------                 ------------------------

           IN:                                      IN:
           ---                                      ---
             STORAGE =           0.0000               STORAGE =           0.0000
       CONSTANT HEAD =           0.0000         CONSTANT HEAD =           0.0000
               WELLS =        4400.0000                 WELLS =         100.0000
     HEAD DEP BOUNDS =       52304.1250       HEAD DEP BOUNDS =        1156.3782

            TOTAL IN =       56704.1250              TOTAL IN =        1256.3782

          OUT:                                     OUT:
          ----                                     ----
             STORAGE =        3911.7629               STORAGE =          73.6285
       CONSTANT HEAD =           0.0000         CONSTANT HEAD =           0.0000
               WELLS =           0.0000                 WELLS =           0.0000
     HEAD DEP BOUNDS =       52791.8047       HEAD DEP BOUNDS =        1182.7422

           TOTAL OUT =       56703.5664             TOTAL OUT =        1256.3706

            IN - OUT =           0.5586              IN - OUT =       7.5684E-03

 PERCENT DISCREPANCY =           0.00     PERCENT DISCREPANCY =           0.00






         TIME SUMMARY AT END OF TIME STEP   44 IN STRESS PERIOD    2
                    SECONDS     MINUTES      HOURS       DAYS        YEARS
                    -----------------------------------------------------------
   TIME STEP LENGTH  86400.      1440.0      24.000      1.0000     2.73785E-03
 STRESS PERIOD TIME 3.80160E+06  63360.      1056.0      44.000     0.12047    
         TOTAL TIME 3.88800E+06  64800.      1080.0      45.000     0.12320    
1
 
 SOLVING FOR HEAD 

 OUTPUT CONTROL FOR STRESS PERIOD    2   TIME STEP   45
    SAVE HEAD FOR ALL LAYERS
    SAVE DRAWDOWN FOR ALL LAYERS
    SAVE BUDGET
    PRINT HEAD FOR ALL LAYERS
    PRINT BUDGET
 UBDSV1 SAVING "         STORAGE" ON UNIT  53 AT TIME STEP 45, STRESS PERIOD   2
 UBDSV2 SAVING "   CONSTANT HEAD" ON UNIT  53 AT TIME STEP 45, STRESS PERIOD   2
 UBDSV1 SAVING "FLOW RIGHT FACE " ON UNIT  53 AT TIME STEP 45, STRESS PERIOD   2
 UBDSV1 SAVING "FLOW FRONT FACE " ON UNIT  53 AT TIME STEP 45, STRESS PERIOD   2
 UBDSV1 SAVING "FLOW LOWER FACE " ON UNIT  53 AT TIME STEP 45, STRESS PERIOD   2

 SAVING SATURATED THICKNESS AND FLOW TERMS ON UNIT   54 FOR MT3DMS
 BY THE LINK-MT3DMS PACKAGE V7 AT TIME STEP   45, STRESS PERIOD    2

1
              HEAD IN LAYER   1 AT END OF TIME STEP  45 IN STRESS PERIOD    2
  ---------------------------------------------------------------------------

            1           2           3           4           5           6           7           8           9          10
 ........................................................................................................................
   1    9.998       8.938       7.865       6.782       5.687       4.579       3.456       2.320       1.169      1.5244E-03
   2    9.998       8.939       7.868       6.786       5.693       4.586       3.463       2.324       1.171      1.5271E-03
   3    9.998       8.941       7.873       6.797       5.709       4.606       3.479       2.334       1.176      1.5332E-03
   4    9.998       8.945       7.882       6.814       5.739       4.649       3.509       2.351       1.183      1.5429E-03
   5    9.998       8.948       7.891       6.836       5.791       4.749       3.561       2.374       1.192      1.5545E-03
   6    9.998       8.950       7.897       6.854       5.856       5.043       3.629       2.392       1.197      1.5617E-03
   7    9.998       8.948       7.892       6.837       5.791       4.749       3.562       2.374       1.192      1.5548E-03
   8    9.998       8.945       7.882       6.814       5.741       4.650       3.510       2.351       1.183      1.5435E-03
   9    9.998       8.942       7.875       6.799       5.712       4.609       3.481       2.336       1.177      1.5346E-03
  10    9.998       8.940       7.871       6.791       5.700       4.593       3.469       2.328       1.173      1.5300E-03
1
              HEAD IN LAYER   2 AT END OF TIME STEP  45 IN STRESS PERIOD    2
  ---------------------------------------------------------------------------

            1           2           3           4           5           6           7           8           9          10
 ........................................................................................................................
   1    9.998       8.936       7.864       6.781       5.686       4.577       3.455       2.318       1.168      2.5077E-03
   2    9.998       8.938       7.867       6.785       5.693       4.585       3.462       2.323       1.170      2.5123E-03
   3    9.998       8.940       7.872       6.796       5.709       4.605       3.478       2.333       1.174      2.5223E-03
   4    9.998       8.943       7.881       6.813       5.740       4.649       3.509       2.350       1.182      2.5380E-03
   5    9.998       8.947       7.891       6.836       5.791       4.748       3.561       2.373       1.190      2.5567E-03
   6    9.998       8.949       7.896       6.854       5.856       5.083       3.628       2.392       1.196      2.5681E-03
   7    9.998       8.947       7.891       6.837       5.792       4.749       3.562       2.374       1.191      2.5571E-03
   8    9.998       8.944       7.882       6.814       5.741       4.650       3.510       2.351       1.182      2.5391E-03
   9    9.998       8.941       7.874       6.798       5.712       4.609       3.481       2.335       1.175      2.5246E-03
  10    9.998       8.939       7.870       6.790       5.699       4.593       3.468       2.327       1.172      2.5172E-03
1
              HEAD IN LAYER   3 AT END OF TIME STEP  45 IN STRESS PERIOD    2
  ---------------------------------------------------------------------------

            1           2           3           4           5           6           7           8           9          10
 ........................................................................................................................
   1    9.998       8.935       7.863       6.780       5.685       4.576       3.454       2.317       1.166      2.5577E-03
   2    9.998       8.936       7.866       6.784       5.692       4.585       3.461       2.321       1.168      2.5625E-03
   3    9.998       8.939       7.871       6.795       5.708       4.605       3.477       2.332       1.173      2.5729E-03
   4    9.998       8.942       7.880       6.813       5.740       4.648       3.509       2.349       1.181      2.5894E-03
   5    9.998       8.946       7.890       6.836       5.791       4.743       3.561       2.373       1.189      2.6087E-03
   6    9.998       8.948       7.896       6.854       5.851       4.975       3.622       2.391       1.195      2.6204E-03
   7    9.998       8.946       7.891       6.837       5.791       4.744       3.561       2.373       1.190      2.6092E-03
   8    9.998       8.943       7.881       6.814       5.741       4.650       3.510       2.350       1.181      2.5905E-03
   9    9.998       8.940       7.873       6.798       5.712       4.608       3.480       2.334       1.174      2.5755E-03
  10    9.998       8.938       7.869       6.790       5.699       4.592       3.467       2.326       1.171      2.5677E-03
1
              HEAD IN LAYER   4 AT END OF TIME STEP  45 IN STRESS PERIOD    2
  ---------------------------------------------------------------------------

            1           2           3           4           5           6           7           8           9          10
 ........................................................................................................................
   1    9.998       8.934       7.862       6.779       5.684       4.576       3.453       2.316       1.165      2.5578E-03
   2    9.998       8.936       7.865       6.784       5.691       4.584       3.460       2.321       1.167      2.5628E-03
   3    9.998       8.938       7.871       6.795       5.708       4.605       3.477       2.331       1.172      2.5734E-03
   4    9.998       8.942       7.880       6.813       5.740       4.648       3.509       2.349       1.180      2.5900E-03
   5    9.998       8.946       7.890       6.836       5.790       4.738       3.560       2.373       1.189      2.6096E-03
   6    9.998       8.947       7.896       6.854       5.846       4.911       3.617       2.390       1.194      2.6213E-03
   7    9.998       8.946       7.890       6.837       5.791       4.739       3.561       2.373       1.189      2.6101E-03
   8    9.998       8.942       7.881       6.814       5.741       4.650       3.510       2.350       1.180      2.5913E-03
   9    9.998       8.939       7.873       6.797       5.711       4.608       3.480       2.333       1.174      2.5760E-03
  10    9.998       8.937       7.868       6.789       5.698       4.592       3.467       2.325       1.170      2.5682E-03
1
              HEAD IN LAYER   5 AT END OF TIME STEP  45 IN STRESS PERIOD    2
  ---------------------------------------------------------------------------

            1           2           3           4           5           6           7           8           9          10
 ........................................................................................................................
   1    9.998       8.934       7.862       6.779       5.684       4.575       3.453       2.315       1.165      2.5569E-03
   2    9.998       8.935       7.865       6.784       5.691       4.584       3.460       2.320       1.167      2.5619E-03
   3    9.998       8.938       7.871       6.795       5.708       4.605       3.477       2.331       1.172      2.5726E-03
   4    9.998       8.942       7.880       6.813       5.740       4.648       3.508       2.349       1.180      2.5894E-03
   5    9.998       8.945       7.890       6.836       5.790       4.735       3.560       2.372       1.189      2.6090E-03
   6    9.998       8.947       7.896       6.854       5.844       4.882       3.614       2.390       1.194      2.6207E-03
   7    9.998       8.946       7.890       6.837       5.791       4.736       3.560       2.373       1.189      2.6095E-03
   8    9.998       8.942       7.880       6.814       5.741       4.649       3.510       2.350       1.180      2.5906E-03
   9    9.998       8.939       7.872       6.797       5.711       4.608       3.480       2.333       1.173      2.5753E-03
  10    9.998       8.937       7.868       6.789       5.698       4.592       3.467       2.325       1.170      2.5674E-03

 HEAD WILL BE SAVED ON UNIT   51 AT END OF TIME STEP   45, STRESS PERIOD    2

 DRAWDOWN WILL BE SAVED ON UNIT   52 AT END OF TIME STEP   45, STRESS PERIOD    2
1
  VOLUMETRIC BUDGET FOR ENTIRE MODEL AT END OF TIME STEP   45, STRESS PERIOD   2
  ------------------------------------------------------------------------------

     CUMULATIVE VOLUMES      L**3       RATES FOR THIS TIME STEP      L**3/T
     ------------------                 ------------------------

           IN:                                      IN:
           ---                                      ---
             STORAGE =           0.0000               STORAGE =           0.0000
       CONSTANT HEAD =           0.0000         CONSTANT HEAD =           0.0000
               WELLS =        4500.0000                 WELLS =         100.0000
     HEAD DEP BOUNDS =       53460.1875       HEAD DEP BOUNDS =        1156.0624

            TOTAL IN =       57960.1875              TOTAL IN =        1256.0624

          OUT:                                     OUT:
          ----                                     ----
             STORAGE =        3984.6279               STORAGE =          72.8651
       CONSTANT HEAD =           0.0000         CONSTANT HEAD =           0.0000
               WELLS =           0.0000                 WELLS =           0.0000
     HEAD DEP BOUNDS =       53974.9844       HEAD DEP BOUNDS =        1183.1812

           TOTAL OUT =       57959.6133             TOTAL OUT =        1256.0463

            IN - OUT =           0.5742              IN - OUT =       1.6113E-02

 PERCENT DISCREPANCY =           0.00     PERCENT DISCREPANCY =           0.00






         TIME SUMMARY AT END OF TIME STEP   45 IN STRESS PERIOD    2
                    SECONDS     MINUTES      HOURS       DAYS        YEARS
                    -----------------------------------------------------------
   TIME STEP LENGTH  86400.      1440.0      24.000      1.0000     2.73785E-03
 STRESS PERIOD TIME 3.88800E+06  64800.      1080.0      45.000     0.12320    
         TOTAL TIME 3.97440E+06  66240.      1104.0      46.000     0.12594    
1
 
 SOLVING FOR HEAD 

 OUTPUT CONTROL FOR STRESS PERIOD    2   TIME STEP   46
    SAVE HEAD FOR ALL LAYERS
    SAVE DRAWDOWN FOR ALL LAYERS
    SAVE BUDGET
    PRINT HEAD FOR ALL LAYERS
    PRINT BUDGET
 UBDSV1 SAVING "         STORAGE" ON UNIT  53 AT TIME STEP 46, STRESS PERIOD   2
 UBDSV2 SAVING "   CONSTANT HEAD" ON UNIT  53 AT TIME STEP 46, STRESS PERIOD   2
 UBDSV1 SAVING "FLOW RIGHT FACE " ON UNIT  53 AT TIME STEP 46, STRESS PERIOD   2
 UBDSV1 SAVING "FLOW FRONT FACE " ON UNIT  53 AT TIME STEP 46, STRESS PERIOD   2
 UBDSV1 SAVING "FLOW LOWER FACE " ON UNIT  53 AT TIME STEP 46, STRESS PERIOD   2

 SAVING SATURATED THICKNESS AND FLOW TERMS ON UNIT   54 FOR MT3DMS
 BY THE LINK-MT3DMS PACKAGE V7 AT TIME STEP   46, STRESS PERIOD    2

1
              HEAD IN LAYER   1 AT END OF TIME STEP  46 IN STRESS PERIOD    2
  ---------------------------------------------------------------------------

            1           2           3           4           5           6           7           8           9          10
 ........................................................................................................................
   1    9.998       8.938       7.866       6.782       5.687       4.579       3.457       2.320       1.170      1.5246E-03
   2    9.998       8.939       7.868       6.787       5.694       4.587       3.463       2.324       1.172      1.5274E-03
   3    9.998       8.942       7.874       6.797       5.710       4.607       3.479       2.334       1.176      1.5337E-03
   4    9.998       8.945       7.882       6.815       5.741       4.650       3.510       2.352       1.183      1.5436E-03
   5    9.998       8.948       7.892       6.838       5.792       4.751       3.563       2.375       1.192      1.5554E-03
   6    9.998       8.950       7.898       6.855       5.858       5.045       3.631       2.393       1.198      1.5626E-03
   7    9.998       8.949       7.892       6.838       5.793       4.751       3.563       2.375       1.192      1.5556E-03
   8    9.998       8.945       7.883       6.816       5.742       4.651       3.512       2.352       1.184      1.5443E-03
   9    9.998       8.942       7.875       6.800       5.713       4.610       3.482       2.336       1.177      1.5351E-03
  10    9.998       8.941       7.871       6.792       5.700       4.594       3.469       2.329       1.174      1.5304E-03
1
              HEAD IN LAYER   2 AT END OF TIME STEP  46 IN STRESS PERIOD    2
  ---------------------------------------------------------------------------

            1           2           3           4           5           6           7           8           9          10
 ........................................................................................................................
   1    9.998       8.937       7.864       6.781       5.686       4.578       3.455       2.318       1.168      2.5081E-03
   2    9.998       8.938       7.867       6.786       5.693       4.586       3.462       2.323       1.170      2.5128E-03
   3    9.998       8.940       7.873       6.797       5.710       4.606       3.479       2.333       1.175      2.5230E-03
   4    9.998       8.944       7.882       6.814       5.741       4.650       3.510       2.351       1.182      2.5390E-03
   5    9.998       8.947       7.891       6.838       5.793       4.750       3.563       2.374       1.191      2.5580E-03
   6    9.998       8.949       7.897       6.855       5.858       5.085       3.629       2.393       1.196      2.5695E-03
   7    9.998       8.947       7.892       6.838       5.793       4.750       3.563       2.375       1.191      2.5584E-03
   8    9.998       8.944       7.882       6.815       5.742       4.652       3.512       2.352       1.183      2.5402E-03
   9    9.998       8.941       7.874       6.799       5.713       4.610       3.482       2.336       1.176      2.5255E-03
  10    9.998       8.939       7.870       6.791       5.700       4.594       3.469       2.328       1.172      2.5179E-03
1
              HEAD IN LAYER   3 AT END OF TIME STEP  46 IN STRESS PERIOD    2
  ---------------------------------------------------------------------------

            1           2           3           4           5           6           7           8           9          10
 ........................................................................................................................
   1    9.998       8.935       7.863       6.780       5.685       4.577       3.454       2.317       1.166      2.5581E-03
   2    9.998       8.937       7.866       6.785       5.692       4.585       3.461       2.322       1.169      2.5631E-03
   3    9.998       8.939       7.872       6.796       5.709       4.606       3.478       2.332       1.173      2.5737E-03
   4    9.998       8.943       7.881       6.814       5.741       4.650       3.510       2.350       1.181      2.5904E-03
   5    9.998       8.947       7.891       6.838       5.792       4.745       3.562       2.374       1.190      2.6100E-03
   6    9.998       8.948       7.897       6.855       5.853       4.976       3.624       2.392       1.195      2.6217E-03
   7    9.998       8.947       7.891       6.838       5.793       4.745       3.563       2.374       1.190      2.6104E-03
   8    9.998       8.943       7.882       6.815       5.742       4.651       3.511       2.351       1.182      2.5916E-03
   9    9.998       8.940       7.874       6.799       5.713       4.610       3.481       2.335       1.175      2.5764E-03
  10    9.998       8.938       7.869       6.790       5.699       4.593       3.468       2.327       1.171      2.5685E-03
1
              HEAD IN LAYER   4 AT END OF TIME STEP  46 IN STRESS PERIOD    2
  ---------------------------------------------------------------------------

            1           2           3           4           5           6           7           8           9          10
 ........................................................................................................................
   1    9.998       8.935       7.862       6.779       5.685       4.576       3.453       2.316       1.165      2.5583E-03
   2    9.998       8.936       7.865       6.784       5.692       4.585       3.461       2.321       1.168      2.5633E-03
   3    9.998       8.939       7.871       6.795       5.709       4.606       3.478       2.332       1.173      2.5742E-03
   4    9.998       8.942       7.880       6.814       5.741       4.649       3.510       2.350       1.180      2.5911E-03
   5    9.998       8.946       7.891       6.838       5.792       4.740       3.561       2.374       1.189      2.6108E-03
   6    9.998       8.948       7.897       6.855       5.848       4.913       3.618       2.391       1.195      2.6226E-03
   7    9.998       8.946       7.891       6.838       5.792       4.740       3.562       2.374       1.190      2.6113E-03
   8    9.998       8.943       7.881       6.815       5.742       4.651       3.511       2.351       1.181      2.5923E-03
   9    9.998       8.939       7.873       6.798       5.712       4.609       3.481       2.334       1.174      2.5769E-03
  10    9.998       8.938       7.869       6.790       5.699       4.593       3.468       2.326       1.170      2.5689E-03
1
              HEAD IN LAYER   5 AT END OF TIME STEP  46 IN STRESS PERIOD    2
  ---------------------------------------------------------------------------

            1           2           3           4           5           6           7           8           9          10
 ........................................................................................................................
   1    9.998       8.934       7.862       6.779       5.684       4.576       3.453       2.316       1.165      2.5573E-03
   2    9.998       8.936       7.865       6.784       5.692       4.585       3.460       2.321       1.167      2.5625E-03
   3    9.998       8.938       7.871       6.795       5.709       4.606       3.478       2.331       1.172      2.5734E-03
   4    9.998       8.942       7.880       6.814       5.741       4.649       3.510       2.350       1.180      2.5904E-03
   5    9.998       8.946       7.891       6.838       5.792       4.737       3.561       2.373       1.189      2.6102E-03
   6    9.998       8.948       7.897       6.855       5.845       4.884       3.615       2.391       1.194      2.6220E-03
   7    9.998       8.946       7.891       6.838       5.792       4.737       3.562       2.374       1.189      2.6107E-03
   8    9.998       8.942       7.881       6.815       5.742       4.651       3.511       2.351       1.181      2.5917E-03
   9    9.998       8.939       7.873       6.798       5.712       4.609       3.481       2.334       1.174      2.5762E-03
  10    9.998       8.937       7.868       6.790       5.699       4.593       3.468       2.326       1.170      2.5682E-03

 HEAD WILL BE SAVED ON UNIT   51 AT END OF TIME STEP   46, STRESS PERIOD    2

 DRAWDOWN WILL BE SAVED ON UNIT   52 AT END OF TIME STEP   46, STRESS PERIOD    2
1
  VOLUMETRIC BUDGET FOR ENTIRE MODEL AT END OF TIME STEP   46, STRESS PERIOD   2
  ------------------------------------------------------------------------------

     CUMULATIVE VOLUMES      L**3       RATES FOR THIS TIME STEP      L**3/T
     ------------------                 ------------------------

           IN:                                      IN:
           ---                                      ---
             STORAGE =           0.0000               STORAGE =           0.0000
       CONSTANT HEAD =           0.0000         CONSTANT HEAD =           0.0000
               WELLS =        4600.0000                 WELLS =         100.0000
     HEAD DEP BOUNDS =       54615.9219       HEAD DEP BOUNDS =        1155.7325

            TOTAL IN =       59215.9219              TOTAL IN =        1255.7325

          OUT:                                     OUT:
          ----                                     ----
             STORAGE =        4056.7344               STORAGE =          72.1065
       CONSTANT HEAD =           0.0000         CONSTANT HEAD =           0.0000
               WELLS =           0.0000                 WELLS =           0.0000
     HEAD DEP BOUNDS =       55158.6016       HEAD DEP BOUNDS =        1183.6162

           TOTAL OUT =       59215.3359             TOTAL OUT =        1255.7227

            IN - OUT =           0.5859              IN - OUT =       9.8877E-03

 PERCENT DISCREPANCY =           0.00     PERCENT DISCREPANCY =           0.00






         TIME SUMMARY AT END OF TIME STEP   46 IN STRESS PERIOD    2
                    SECONDS     MINUTES      HOURS       DAYS        YEARS
                    -----------------------------------------------------------
   TIME STEP LENGTH  86400.      1440.0      24.000      1.0000     2.73785E-03
 STRESS PERIOD TIME 3.97440E+06  66240.      1104.0      46.000     0.12594    
         TOTAL TIME 4.06080E+06  67680.      1128.0      47.000     0.12868    
1
 
 SOLVING FOR HEAD 

 OUTPUT CONTROL FOR STRESS PERIOD    2   TIME STEP   47
    SAVE HEAD FOR ALL LAYERS
    SAVE DRAWDOWN FOR ALL LAYERS
    SAVE BUDGET
    PRINT HEAD FOR ALL LAYERS
    PRINT BUDGET
 UBDSV1 SAVING "         STORAGE" ON UNIT  53 AT TIME STEP 47, STRESS PERIOD   2
 UBDSV2 SAVING "   CONSTANT HEAD" ON UNIT  53 AT TIME STEP 47, STRESS PERIOD   2
 UBDSV1 SAVING "FLOW RIGHT FACE " ON UNIT  53 AT TIME STEP 47, STRESS PERIOD   2
 UBDSV1 SAVING "FLOW FRONT FACE " ON UNIT  53 AT TIME STEP 47, STRESS PERIOD   2
 UBDSV1 SAVING "FLOW LOWER FACE " ON UNIT  53 AT TIME STEP 47, STRESS PERIOD   2

 SAVING SATURATED THICKNESS AND FLOW TERMS ON UNIT   54 FOR MT3DMS
 BY THE LINK-MT3DMS PACKAGE V7 AT TIME STEP   47, STRESS PERIOD    2

1
              HEAD IN LAYER   1 AT END OF TIME STEP  47 IN STRESS PERIOD    2
  ---------------------------------------------------------------------------

            1           2           3           4           5           6           7           8           9          10
 ........................................................................................................................
   1    9.998       8.938       7.866       6.783       5.688       4.580       3.457       2.320       1.170      1.5250E-03
   2    9.998       8.940       7.869       6.788       5.695       4.588       3.464       2.325       1.172      1.5278E-03
   3    9.998       8.942       7.874       6.798       5.711       4.608       3.480       2.335       1.177      1.5341E-03
   4    9.998       8.945       7.883       6.816       5.742       4.651       3.512       2.352       1.184      1.5443E-03
   5    9.998       8.949       7.893       6.839       5.794       4.752       3.565       2.376       1.193      1.5562E-03
   6    9.998       8.951       7.899       6.857       5.859       5.047       3.632       2.395       1.198      1.5635E-03
   7    9.998       8.949       7.893       6.839       5.794       4.753       3.565       2.376       1.193      1.5564E-03
   8    9.998       8.946       7.884       6.817       5.743       4.653       3.513       2.353       1.184      1.5449E-03
   9    9.998       8.943       7.876       6.800       5.714       4.611       3.483       2.337       1.178      1.5357E-03
  10    9.998       8.941       7.872       6.792       5.701       4.595       3.470       2.329       1.174      1.5309E-03
1
              HEAD IN LAYER   2 AT END OF TIME STEP  47 IN STRESS PERIOD    2
  ---------------------------------------------------------------------------

            1           2           3           4           5           6           7           8           9          10
 ........................................................................................................................
   1    9.998       8.937       7.865       6.782       5.687       4.579       3.456       2.319       1.168      2.5086E-03
   2    9.998       8.938       7.867       6.786       5.694       4.587       3.463       2.323       1.170      2.5134E-03
   3    9.998       8.940       7.873       6.797       5.711       4.607       3.480       2.334       1.175      2.5238E-03
   4    9.998       8.944       7.882       6.815       5.742       4.651       3.511       2.352       1.183      2.5401E-03
   5    9.998       8.948       7.892       6.839       5.794       4.751       3.564       2.376       1.192      2.5593E-03
   6    9.998       8.950       7.898       6.857       5.859       5.087       3.631       2.394       1.197      2.5708E-03
   7    9.998       8.948       7.893       6.839       5.795       4.752       3.565       2.376       1.192      2.5597E-03
   8    9.998       8.944       7.883       6.816       5.744       4.653       3.513       2.353       1.183      2.5412E-03
   9    9.998       8.941       7.875       6.800       5.714       4.611       3.483       2.336       1.176      2.5263E-03
  10    9.998       8.940       7.871       6.792       5.701       4.594       3.470       2.328       1.173      2.5187E-03
1
              HEAD IN LAYER   3 AT END OF TIME STEP  47 IN STRESS PERIOD    2
  ---------------------------------------------------------------------------

            1           2           3           4           5           6           7           8           9          10
 ........................................................................................................................
   1    9.998       8.936       7.863       6.781       5.686       4.578       3.455       2.317       1.167      2.5586E-03
   2    9.998       8.937       7.866       6.786       5.693       4.586       3.462       2.322       1.169      2.5636E-03
   3    9.998       8.939       7.872       6.797       5.710       4.607       3.479       2.333       1.174      2.5745E-03
   4    9.998       8.943       7.882       6.815       5.742       4.651       3.511       2.351       1.182      2.5914E-03
   5    9.998       8.947       7.892       6.839       5.794       4.746       3.564       2.375       1.191      2.6112E-03
   6    9.998       8.949       7.898       6.857       5.854       4.978       3.625       2.393       1.196      2.6231E-03
   7    9.998       8.947       7.892       6.839       5.794       4.747       3.564       2.375       1.191      2.6117E-03
   8    9.998       8.944       7.882       6.816       5.744       4.653       3.513       2.352       1.182      2.5927E-03
   9    9.998       8.940       7.874       6.799       5.714       4.611       3.482       2.335       1.175      2.5773E-03
  10    9.998       8.939       7.870       6.791       5.700       4.594       3.469       2.327       1.171      2.5692E-03
1
              HEAD IN LAYER   4 AT END OF TIME STEP  47 IN STRESS PERIOD    2
  ---------------------------------------------------------------------------

            1           2           3           4           5           6           7           8           9          10
 ........................................................................................................................
   1    9.998       8.935       7.863       6.780       5.685       4.577       3.454       2.317       1.166      2.5587E-03
   2    9.998       8.936       7.866       6.785       5.693       4.586       3.461       2.322       1.168      2.5639E-03
   3    9.998       8.939       7.872       6.796       5.710       4.607       3.479       2.332       1.173      2.5749E-03
   4    9.998       8.943       7.881       6.815       5.742       4.651       3.511       2.351       1.181      2.5921E-03
   5    9.998       8.946       7.892       6.839       5.793       4.741       3.563       2.375       1.190      2.6121E-03
   6    9.998       8.948       7.897       6.856       5.850       4.915       3.620       2.393       1.195      2.6239E-03
   7    9.998       8.947       7.892       6.839       5.794       4.742       3.563       2.375       1.190      2.6126E-03
   8    9.998       8.943       7.882       6.816       5.744       4.652       3.512       2.352       1.181      2.5934E-03
   9    9.998       8.940       7.874       6.799       5.713       4.611       3.482       2.335       1.174      2.5778E-03
  10    9.998       8.938       7.869       6.791       5.700       4.594       3.469       2.327       1.171      2.5697E-03
1
              HEAD IN LAYER   5 AT END OF TIME STEP  47 IN STRESS PERIOD    2
  ---------------------------------------------------------------------------

            1           2           3           4           5           6           7           8           9          10
 ........................................................................................................................
   1    9.998       8.934       7.862       6.779       5.685       4.577       3.454       2.316       1.165      2.5578E-03
   2    9.998       8.936       7.865       6.785       5.692       4.585       3.461       2.321       1.168      2.5630E-03
   3    9.998       8.938       7.872       6.796       5.710       4.607       3.478       2.332       1.173      2.5742E-03
   4    9.998       8.942       7.881       6.815       5.742       4.650       3.511       2.350       1.180      2.5914E-03
   5    9.998       8.946       7.891       6.839       5.793       4.738       3.562       2.374       1.190      2.6115E-03
   6    9.998       8.948       7.897       6.856       5.847       4.885       3.617       2.392       1.195      2.6233E-03
   7    9.998       8.946       7.892       6.839       5.794       4.739       3.563       2.375       1.190      2.6120E-03
   8    9.998       8.943       7.882       6.816       5.744       4.652       3.512       2.352       1.181      2.5928E-03
   9    9.998       8.939       7.873       6.799       5.713       4.610       3.482       2.335       1.174      2.5771E-03
  10    9.998       8.938       7.869       6.790       5.700       4.594       3.468       2.326       1.170      2.5689E-03

 HEAD WILL BE SAVED ON UNIT   51 AT END OF TIME STEP   47, STRESS PERIOD    2

 DRAWDOWN WILL BE SAVED ON UNIT   52 AT END OF TIME STEP   47, STRESS PERIOD    2
1
  VOLUMETRIC BUDGET FOR ENTIRE MODEL AT END OF TIME STEP   47, STRESS PERIOD   2
  ------------------------------------------------------------------------------

     CUMULATIVE VOLUMES      L**3       RATES FOR THIS TIME STEP      L**3/T
     ------------------                 ------------------------

           IN:                                      IN:
           ---                                      ---
             STORAGE =           0.0000               STORAGE =           0.0000
       CONSTANT HEAD =           0.0000         CONSTANT HEAD =           0.0000
               WELLS =        4700.0000                 WELLS =         100.0000
     HEAD DEP BOUNDS =       55771.3398       HEAD DEP BOUNDS =        1155.4172

            TOTAL IN =       60471.3398              TOTAL IN =        1255.4172

          OUT:                                     OUT:
          ----                                     ----
             STORAGE =        4128.0820               STORAGE =          71.3477
       CONSTANT HEAD =           0.0000         CONSTANT HEAD =           0.0000
               WELLS =           0.0000                 WELLS =           0.0000
     HEAD DEP BOUNDS =       56342.6523       HEAD DEP BOUNDS =        1184.0492

           TOTAL OUT =       60470.7344             TOTAL OUT =        1255.3969

            IN - OUT =           0.6055              IN - OUT =       2.0386E-02

 PERCENT DISCREPANCY =           0.00     PERCENT DISCREPANCY =           0.00






         TIME SUMMARY AT END OF TIME STEP   47 IN STRESS PERIOD    2
                    SECONDS     MINUTES      HOURS       DAYS        YEARS
                    -----------------------------------------------------------
   TIME STEP LENGTH  86400.      1440.0      24.000      1.0000     2.73785E-03
 STRESS PERIOD TIME 4.06080E+06  67680.      1128.0      47.000     0.12868    
         TOTAL TIME 4.14720E+06  69120.      1152.0      48.000     0.13142    
1
 
 SOLVING FOR HEAD 

 OUTPUT CONTROL FOR STRESS PERIOD    2   TIME STEP   48
    SAVE HEAD FOR ALL LAYERS
    SAVE DRAWDOWN FOR ALL LAYERS
    SAVE BUDGET
    PRINT HEAD FOR ALL LAYERS
    PRINT BUDGET
 UBDSV1 SAVING "         STORAGE" ON UNIT  53 AT TIME STEP 48, STRESS PERIOD   2
 UBDSV2 SAVING "   CONSTANT HEAD" ON UNIT  53 AT TIME STEP 48, STRESS PERIOD   2
 UBDSV1 SAVING "FLOW RIGHT FACE " ON UNIT  53 AT TIME STEP 48, STRESS PERIOD   2
 UBDSV1 SAVING "FLOW FRONT FACE " ON UNIT  53 AT TIME STEP 48, STRESS PERIOD   2
 UBDSV1 SAVING "FLOW LOWER FACE " ON UNIT  53 AT TIME STEP 48, STRESS PERIOD   2

 SAVING SATURATED THICKNESS AND FLOW TERMS ON UNIT   54 FOR MT3DMS
 BY THE LINK-MT3DMS PACKAGE V7 AT TIME STEP   48, STRESS PERIOD    2

1
              HEAD IN LAYER   1 AT END OF TIME STEP  48 IN STRESS PERIOD    2
  ---------------------------------------------------------------------------

            1           2           3           4           5           6           7           8           9          10
 ........................................................................................................................
   1    9.998       8.938       7.866       6.783       5.688       4.580       3.458       2.321       1.170      1.5252E-03
   2    9.998       8.940       7.869       6.788       5.695       4.588       3.465       2.325       1.172      1.5281E-03
   3    9.998       8.942       7.875       6.799       5.712       4.609       3.481       2.336       1.177      1.5347E-03
   4    9.998       8.946       7.884       6.816       5.743       4.653       3.513       2.353       1.184      1.5449E-03
   5    9.998       8.949       7.894       6.840       5.795       4.754       3.566       2.377       1.193      1.5570E-03
   6    9.998       8.951       7.899       6.858       5.861       5.048       3.634       2.396       1.199      1.5643E-03
   7    9.998       8.949       7.894       6.840       5.796       4.755       3.567       2.378       1.194      1.5573E-03
   8    9.998       8.946       7.884       6.818       5.745       4.654       3.514       2.354       1.185      1.5456E-03
   9    9.998       8.943       7.877       6.801       5.715       4.612       3.484       2.338       1.178      1.5362E-03
  10    9.998       8.941       7.872       6.793       5.702       4.596       3.471       2.330       1.175      1.5314E-03
1
              HEAD IN LAYER   2 AT END OF TIME STEP  48 IN STRESS PERIOD    2
  ---------------------------------------------------------------------------

            1           2           3           4           5           6           7           8           9          10
 ........................................................................................................................
   1    9.998       8.937       7.865       6.782       5.687       4.579       3.456       2.319       1.168      2.5090E-03
   2    9.998       8.938       7.868       6.787       5.694       4.588       3.464       2.324       1.171      2.5139E-03
   3    9.998       8.941       7.874       6.798       5.711       4.608       3.481       2.335       1.175      2.5245E-03
   4    9.998       8.944       7.883       6.816       5.743       4.653       3.513       2.353       1.183      2.5411E-03
   5    9.998       8.948       7.893       6.840       5.796       4.753       3.566       2.377       1.192      2.5605E-03
   6    9.998       8.950       7.899       6.858       5.861       5.089       3.633       2.395       1.198      2.5722E-03
   7    9.998       8.948       7.893       6.840       5.796       4.754       3.566       2.377       1.192      2.5610E-03
   8    9.998       8.945       7.884       6.817       5.745       4.654       3.514       2.354       1.184      2.5423E-03
   9    9.998       8.942       7.876       6.801       5.715       4.612       3.484       2.337       1.177      2.5272E-03
  10    9.998       8.940       7.871       6.792       5.702       4.595       3.471       2.329       1.173      2.5194E-03
1
              HEAD IN LAYER   3 AT END OF TIME STEP  48 IN STRESS PERIOD    2
  ---------------------------------------------------------------------------

            1           2           3           4           5           6           7           8           9          10
 ........................................................................................................................
   1    9.998       8.936       7.864       6.781       5.686       4.578       3.455       2.318       1.167      2.5590E-03
   2    9.998       8.937       7.867       6.786       5.694       4.587       3.463       2.323       1.169      2.5642E-03
   3    9.998       8.940       7.873       6.797       5.711       4.608       3.480       2.334       1.174      2.5752E-03
   4    9.998       8.943       7.882       6.816       5.743       4.652       3.512       2.352       1.182      2.5924E-03
   5    9.998       8.947       7.893       6.840       5.795       4.748       3.565       2.376       1.191      2.6124E-03
   6    9.998       8.949       7.899       6.858       5.856       4.980       3.627       2.394       1.197      2.6244E-03
   7    9.998       8.947       7.893       6.840       5.796       4.748       3.566       2.377       1.191      2.6129E-03
   8    9.998       8.944       7.883       6.817       5.745       4.654       3.514       2.353       1.183      2.5937E-03
   9    9.998       8.941       7.875       6.800       5.715       4.612       3.483       2.336       1.175      2.5781E-03
  10    9.998       8.939       7.870       6.792       5.701       4.595       3.470       2.328       1.172      2.5700E-03
1
              HEAD IN LAYER   4 AT END OF TIME STEP  48 IN STRESS PERIOD    2
  ---------------------------------------------------------------------------

            1           2           3           4           5           6           7           8           9          10
 ........................................................................................................................
   1    9.998       8.935       7.863       6.780       5.686       4.578       3.455       2.317       1.166      2.5592E-03
   2    9.998       8.936       7.866       6.785       5.693       4.586       3.462       2.322       1.168      2.5644E-03
   3    9.998       8.939       7.872       6.797       5.711       4.608       3.480       2.333       1.173      2.5757E-03
   4    9.998       8.943       7.882       6.816       5.743       4.652       3.512       2.351       1.181      2.5931E-03
   5    9.998       8.947       7.892       6.840       5.795       4.743       3.564       2.376       1.190      2.6133E-03
   6    9.998       8.949       7.898       6.858       5.851       4.916       3.621       2.394       1.196      2.6252E-03
   7    9.998       8.947       7.893       6.840       5.795       4.743       3.565       2.376       1.191      2.6138E-03
   8    9.998       8.943       7.883       6.817       5.745       4.654       3.514       2.353       1.182      2.5945E-03
   9    9.998       8.940       7.874       6.800       5.714       4.612       3.483       2.336       1.175      2.5787E-03
  10    9.998       8.938       7.870       6.791       5.701       4.595       3.470       2.327       1.171      2.5705E-03
1
              HEAD IN LAYER   5 AT END OF TIME STEP  48 IN STRESS PERIOD    2
  ---------------------------------------------------------------------------

            1           2           3           4           5           6           7           8           9          10
 ........................................................................................................................
   1    9.998       8.935       7.863       6.780       5.685       4.577       3.454       2.317       1.165      2.5583E-03
   2    9.998       8.936       7.866       6.785       5.693       4.586       3.462       2.322       1.168      2.5636E-03
   3    9.998       8.939       7.872       6.797       5.711       4.607       3.479       2.333       1.173      2.5749E-03
   4    9.998       8.943       7.882       6.816       5.743       4.652       3.512       2.351       1.181      2.5924E-03
   5    9.998       8.946       7.892       6.840       5.794       4.740       3.564       2.375       1.190      2.6126E-03
   6    9.998       8.948       7.898       6.857       5.848       4.887       3.618       2.393       1.196      2.6246E-03
   7    9.998       8.947       7.892       6.840       5.795       4.740       3.564       2.376       1.190      2.6132E-03
   8    9.998       8.943       7.882       6.817       5.745       4.653       3.514       2.352       1.182      2.5938E-03
   9    9.998       8.940       7.874       6.800       5.714       4.612       3.483       2.335       1.174      2.5780E-03
  10    9.998       8.938       7.869       6.791       5.701       4.595       3.469       2.327       1.171      2.5697E-03

 HEAD WILL BE SAVED ON UNIT   51 AT END OF TIME STEP   48, STRESS PERIOD    2

 DRAWDOWN WILL BE SAVED ON UNIT   52 AT END OF TIME STEP   48, STRESS PERIOD    2
1
  VOLUMETRIC BUDGET FOR ENTIRE MODEL AT END OF TIME STEP   48, STRESS PERIOD   2
  ------------------------------------------------------------------------------

     CUMULATIVE VOLUMES      L**3       RATES FOR THIS TIME STEP      L**3/T
     ------------------                 ------------------------

           IN:                                      IN:
           ---                                      ---
             STORAGE =           0.0000               STORAGE =           0.0000
       CONSTANT HEAD =           0.0000         CONSTANT HEAD =           0.0000
               WELLS =        4800.0000                 WELLS =         100.0000
     HEAD DEP BOUNDS =       56926.4336       HEAD DEP BOUNDS =        1155.0953

            TOTAL IN =       61726.4336              TOTAL IN =        1255.0953

          OUT:                                     OUT:
          ----                                     ----
             STORAGE =        4198.6919               STORAGE =          70.6101
       CONSTANT HEAD =           0.0000         CONSTANT HEAD =           0.0000
               WELLS =           0.0000                 WELLS =           0.0000
     HEAD DEP BOUNDS =       57527.1250       HEAD DEP BOUNDS =        1184.4745

           TOTAL OUT =       61725.8164             TOTAL OUT =        1255.0846

            IN - OUT =           0.6172              IN - OUT =       1.0742E-02

 PERCENT DISCREPANCY =           0.00     PERCENT DISCREPANCY =           0.00






         TIME SUMMARY AT END OF TIME STEP   48 IN STRESS PERIOD    2
                    SECONDS     MINUTES      HOURS       DAYS        YEARS
                    -----------------------------------------------------------
   TIME STEP LENGTH  86400.      1440.0      24.000      1.0000     2.73785E-03
 STRESS PERIOD TIME 4.14720E+06  69120.      1152.0      48.000     0.13142    
         TOTAL TIME 4.23360E+06  70560.      1176.0      49.000     0.13415    
1
 
 SOLVING FOR HEAD 

 OUTPUT CONTROL FOR STRESS PERIOD    2   TIME STEP   49
    SAVE HEAD FOR ALL LAYERS
    SAVE DRAWDOWN FOR ALL LAYERS
    SAVE BUDGET
    PRINT HEAD FOR ALL LAYERS
    PRINT BUDGET
 UBDSV1 SAVING "         STORAGE" ON UNIT  53 AT TIME STEP 49, STRESS PERIOD   2
 UBDSV2 SAVING "   CONSTANT HEAD" ON UNIT  53 AT TIME STEP 49, STRESS PERIOD   2
 UBDSV1 SAVING "FLOW RIGHT FACE " ON UNIT  53 AT TIME STEP 49, STRESS PERIOD   2
 UBDSV1 SAVING "FLOW FRONT FACE " ON UNIT  53 AT TIME STEP 49, STRESS PERIOD   2
 UBDSV1 SAVING "FLOW LOWER FACE " ON UNIT  53 AT TIME STEP 49, STRESS PERIOD   2

 SAVING SATURATED THICKNESS AND FLOW TERMS ON UNIT   54 FOR MT3DMS
 BY THE LINK-MT3DMS PACKAGE V7 AT TIME STEP   49, STRESS PERIOD    2

1
              HEAD IN LAYER   1 AT END OF TIME STEP  49 IN STRESS PERIOD    2
  ---------------------------------------------------------------------------

            1           2           3           4           5           6           7           8           9          10
 ........................................................................................................................
   1    9.998       8.939       7.867       6.784       5.689       4.581       3.458       2.321       1.170      1.5255E-03
   2    9.998       8.940       7.869       6.789       5.696       4.589       3.465       2.326       1.172      1.5284E-03
   3    9.998       8.942       7.875       6.799       5.713       4.610       3.482       2.336       1.177      1.5351E-03
   4    9.998       8.946       7.884       6.817       5.744       4.654       3.514       2.354       1.185      1.5455E-03
   5    9.998       8.950       7.894       6.841       5.797       4.756       3.568       2.378       1.194      1.5578E-03
   6    9.998       8.952       7.900       6.859       5.863       5.050       3.636       2.397       1.199      1.5652E-03
   7    9.998       8.950       7.895       6.842       5.797       4.756       3.568       2.379       1.194      1.5581E-03
   8    9.998       8.946       7.885       6.819       5.746       4.656       3.516       2.355       1.185      1.5463E-03
   9    9.998       8.943       7.877       6.802       5.716       4.613       3.485       2.339       1.178      1.5368E-03
  10    9.998       8.941       7.873       6.794       5.703       4.597       3.472       2.331       1.175      1.5319E-03
1
              HEAD IN LAYER   2 AT END OF TIME STEP  49 IN STRESS PERIOD    2
  ---------------------------------------------------------------------------

            1           2           3           4           5           6           7           8           9          10
 ........................................................................................................................
   1    9.998       8.937       7.865       6.782       5.688       4.580       3.457       2.320       1.168      2.5095E-03
   2    9.998       8.938       7.868       6.788       5.695       4.588       3.464       2.324       1.171      2.5145E-03
   3    9.998       8.941       7.874       6.799       5.712       4.609       3.481       2.335       1.176      2.5253E-03
   4    9.998       8.945       7.883       6.817       5.744       4.654       3.514       2.354       1.184      2.5421E-03
   5    9.998       8.948       7.894       6.841       5.797       4.755       3.567       2.378       1.193      2.5617E-03
   6    9.998       8.950       7.900       6.859       5.862       5.090       3.634       2.396       1.198      2.5735E-03
   7    9.998       8.949       7.894       6.842       5.798       4.755       3.568       2.378       1.193      2.5622E-03
   8    9.998       8.945       7.884       6.818       5.746       4.656       3.515       2.355       1.184      2.5434E-03
   9    9.998       8.942       7.876       6.801       5.716       4.613       3.485       2.338       1.177      2.5281E-03
  10    9.998       8.940       7.872       6.793       5.703       4.596       3.471       2.330       1.173      2.5201E-03
1
              HEAD IN LAYER   3 AT END OF TIME STEP  49 IN STRESS PERIOD    2
  ---------------------------------------------------------------------------

            1           2           3           4           5           6           7           8           9          10
 ........................................................................................................................
   1    9.998       8.936       7.864       6.781       5.687       4.579       3.456       2.318       1.167      2.5595E-03
   2    9.998       8.937       7.867       6.787       5.694       4.587       3.463       2.323       1.169      2.5647E-03
   3    9.998       8.940       7.873       6.798       5.712       4.609       3.481       2.334       1.175      2.5760E-03
   4    9.998       8.944       7.883       6.817       5.744       4.654       3.513       2.353       1.182      2.5934E-03
   5    9.998       8.948       7.893       6.841       5.797       4.749       3.566       2.377       1.192      2.6136E-03
   6    9.998       8.950       7.899       6.859       5.858       4.981       3.628       2.395       1.197      2.6257E-03
   7    9.998       8.948       7.894       6.842       5.797       4.750       3.567       2.378       1.192      2.6142E-03
   8    9.998       8.944       7.884       6.818       5.746       4.655       3.515       2.354       1.183      2.5948E-03
   9    9.998       8.941       7.875       6.801       5.716       4.613       3.484       2.337       1.176      2.5790E-03
  10    9.998       8.939       7.871       6.793       5.702       4.596       3.471       2.329       1.172      2.5708E-03
1
              HEAD IN LAYER   4 AT END OF TIME STEP  49 IN STRESS PERIOD    2
  ---------------------------------------------------------------------------

            1           2           3           4           5           6           7           8           9          10
 ........................................................................................................................
   1    9.998       8.935       7.863       6.781       5.686       4.578       3.455       2.317       1.166      2.5596E-03
   2    9.998       8.937       7.866       6.786       5.694       4.587       3.463       2.322       1.168      2.5650E-03
   3    9.998       8.939       7.873       6.798       5.712       4.609       3.480       2.334       1.174      2.5764E-03
   4    9.998       8.943       7.882       6.817       5.744       4.653       3.513       2.352       1.182      2.5941E-03
   5    9.998       8.947       7.893       6.841       5.796       4.744       3.566       2.377       1.191      2.6144E-03
   6    9.998       8.949       7.899       6.859       5.853       4.918       3.623       2.395       1.197      2.6265E-03
   7    9.998       8.947       7.893       6.842       5.797       4.745       3.566       2.377       1.191      2.6150E-03
   8    9.998       8.944       7.883       6.818       5.746       4.655       3.515       2.354       1.182      2.5955E-03
   9    9.998       8.940       7.875       6.801       5.716       4.613       3.484       2.336       1.175      2.5796E-03
  10    9.998       8.938       7.870       6.792       5.702       4.596       3.470       2.328       1.171      2.5712E-03
1
              HEAD IN LAYER   5 AT END OF TIME STEP  49 IN STRESS PERIOD    2
  ---------------------------------------------------------------------------

            1           2           3           4           5           6           7           8           9          10
 ........................................................................................................................
   1    9.998       8.935       7.863       6.780       5.686       4.578       3.455       2.317       1.166      2.5587E-03
   2    9.998       8.936       7.866       6.786       5.694       4.587       3.462       2.322       1.168      2.5641E-03
   3    9.998       8.939       7.873       6.797       5.711       4.608       3.480       2.333       1.173      2.5757E-03
   4    9.998       8.943       7.882       6.816       5.744       4.653       3.513       2.352       1.181      2.5934E-03
   5    9.998       8.947       7.893       6.841       5.796       4.741       3.565       2.376       1.191      2.6138E-03
   6    9.998       8.949       7.899       6.859       5.850       4.889       3.620       2.394       1.196      2.6258E-03
   7    9.998       8.947       7.893       6.841       5.796       4.742       3.566       2.377       1.191      2.6144E-03
   8    9.998       8.943       7.883       6.818       5.746       4.655       3.515       2.353       1.182      2.5949E-03
   9    9.998       8.940       7.875       6.801       5.715       4.613       3.484       2.336       1.175      2.5788E-03
  10    9.998       8.938       7.870       6.792       5.702       4.596       3.470       2.328       1.171      2.5704E-03

 HEAD WILL BE SAVED ON UNIT   51 AT END OF TIME STEP   49, STRESS PERIOD    2

 DRAWDOWN WILL BE SAVED ON UNIT   52 AT END OF TIME STEP   49, STRESS PERIOD    2
1
  VOLUMETRIC BUDGET FOR ENTIRE MODEL AT END OF TIME STEP   49, STRESS PERIOD   2
  ------------------------------------------------------------------------------

     CUMULATIVE VOLUMES      L**3       RATES FOR THIS TIME STEP      L**3/T
     ------------------                 ------------------------

           IN:                                      IN:
           ---                                      ---
             STORAGE =           0.0000               STORAGE =           0.0000
       CONSTANT HEAD =           0.0000         CONSTANT HEAD =           0.0000
               WELLS =        4900.0000                 WELLS =         100.0000
     HEAD DEP BOUNDS =       58081.2148       HEAD DEP BOUNDS =        1154.7810

            TOTAL IN =       62981.2148              TOTAL IN =        1254.7810

          OUT:                                     OUT:
          ----                                     ----
             STORAGE =        4268.5518               STORAGE =          69.8598
       CONSTANT HEAD =           0.0000         CONSTANT HEAD =           0.0000
               WELLS =           0.0000                 WELLS =           0.0000
     HEAD DEP BOUNDS =       58712.0234       HEAD DEP BOUNDS =        1184.8987

           TOTAL OUT =       62980.5742             TOTAL OUT =        1254.7585

            IN - OUT =           0.6406              IN - OUT =       2.2461E-02

 PERCENT DISCREPANCY =           0.00     PERCENT DISCREPANCY =           0.00






         TIME SUMMARY AT END OF TIME STEP   49 IN STRESS PERIOD    2
                    SECONDS     MINUTES      HOURS       DAYS        YEARS
                    -----------------------------------------------------------
   TIME STEP LENGTH  86400.      1440.0      24.000      1.0000     2.73785E-03
 STRESS PERIOD TIME 4.23360E+06  70560.      1176.0      49.000     0.13415    
         TOTAL TIME 4.32000E+06  72000.      1200.0      50.000     0.13689    
1
 
 SOLVING FOR HEAD 

 OUTPUT CONTROL FOR STRESS PERIOD    2   TIME STEP   50
    SAVE HEAD FOR ALL LAYERS
    SAVE DRAWDOWN FOR ALL LAYERS
    SAVE BUDGET
    PRINT HEAD FOR ALL LAYERS
    PRINT BUDGET
 UBDSV1 SAVING "         STORAGE" ON UNIT  53 AT TIME STEP 50, STRESS PERIOD   2
 UBDSV2 SAVING "   CONSTANT HEAD" ON UNIT  53 AT TIME STEP 50, STRESS PERIOD   2
 UBDSV1 SAVING "FLOW RIGHT FACE " ON UNIT  53 AT TIME STEP 50, STRESS PERIOD   2
 UBDSV1 SAVING "FLOW FRONT FACE " ON UNIT  53 AT TIME STEP 50, STRESS PERIOD   2
 UBDSV1 SAVING "FLOW LOWER FACE " ON UNIT  53 AT TIME STEP 50, STRESS PERIOD   2

 SAVING SATURATED THICKNESS AND FLOW TERMS ON UNIT   54 FOR MT3DMS
 BY THE LINK-MT3DMS PACKAGE V7 AT TIME STEP   50, STRESS PERIOD    2

1
              HEAD IN LAYER   1 AT END OF TIME STEP  50 IN STRESS PERIOD    2
  ---------------------------------------------------------------------------

            1           2           3           4           5           6           7           8           9          10
 ........................................................................................................................
   1    9.998       8.939       7.867       6.784       5.689       4.581       3.459       2.321       1.170      1.5257E-03
   2    9.998       8.940       7.870       6.789       5.697       4.590       3.466       2.326       1.173      1.5288E-03
   3    9.998       8.943       7.876       6.800       5.714       4.611       3.483       2.337       1.178      1.5356E-03
   4    9.998       8.946       7.885       6.818       5.746       4.655       3.515       2.355       1.185      1.5462E-03
   5    9.998       8.950       7.895       6.842       5.798       4.757       3.569       2.379       1.195      1.5585E-03
   6    9.998       8.952       7.901       6.860       5.864       5.052       3.637       2.398       1.200      1.5660E-03
   7    9.998       8.950       7.896       6.843       5.799       4.758       3.570       2.380       1.195      1.5589E-03
   8    9.998       8.947       7.886       6.820       5.747       4.657       3.517       2.356       1.186      1.5469E-03
   9    9.998       8.944       7.878       6.803       5.717       4.615       3.486       2.339       1.179      1.5373E-03
  10    9.998       8.942       7.873       6.795       5.704       4.598       3.473       2.331       1.175      1.5323E-03
1
              HEAD IN LAYER   2 AT END OF TIME STEP  50 IN STRESS PERIOD    2
  ---------------------------------------------------------------------------

            1           2           3           4           5           6           7           8           9          10
 ........................................................................................................................
   1    9.998       8.937       7.865       6.783       5.688       4.580       3.457       2.320       1.169      2.5099E-03
   2    9.998       8.939       7.868       6.788       5.696       4.589       3.465       2.325       1.171      2.5150E-03
   3    9.998       8.941       7.875       6.799       5.713       4.610       3.482       2.336       1.176      2.5260E-03
   4    9.998       8.945       7.884       6.818       5.746       4.655       3.515       2.354       1.184      2.5431E-03
   5    9.998       8.949       7.895       6.842       5.798       4.756       3.569       2.379       1.193      2.5629E-03
   6    9.998       8.951       7.901       6.860       5.864       5.092       3.636       2.397       1.199      2.5747E-03
   7    9.998       8.949       7.895       6.843       5.799       4.757       3.569       2.379       1.194      2.5634E-03
   8    9.998       8.945       7.885       6.819       5.747       4.657       3.517       2.356       1.185      2.5444E-03
   9    9.998       8.942       7.877       6.802       5.717       4.614       3.486       2.339       1.178      2.5289E-03
  10    9.998       8.940       7.872       6.794       5.703       4.597       3.472       2.330       1.174      2.5209E-03
1
              HEAD IN LAYER   3 AT END OF TIME STEP  50 IN STRESS PERIOD    2
  ---------------------------------------------------------------------------

            1           2           3           4           5           6           7           8           9          10
 ........................................................................................................................
   1    9.998       8.936       7.864       6.782       5.687       4.579       3.456       2.319       1.167      2.5599E-03
   2    9.998       8.937       7.867       6.787       5.695       4.588       3.464       2.324       1.170      2.5653E-03
   3    9.998       8.940       7.874       6.799       5.713       4.610       3.482       2.335       1.175      2.5768E-03
   4    9.998       8.944       7.883       6.818       5.746       4.655       3.515       2.354       1.183      2.5944E-03
   5    9.998       8.948       7.894       6.842       5.798       4.751       3.568       2.378       1.192      2.6148E-03
   6    9.998       8.950       7.900       6.860       5.859       4.983       3.630       2.397       1.198      2.6269E-03
   7    9.998       8.948       7.894       6.843       5.799       4.752       3.568       2.379       1.192      2.6154E-03
   8    9.998       8.945       7.884       6.819       5.747       4.657       3.516       2.355       1.184      2.5959E-03
   9    9.998       8.941       7.876       6.802       5.717       4.614       3.485       2.338       1.176      2.5799E-03
  10    9.998       8.939       7.871       6.793       5.703       4.597       3.472       2.329       1.172      2.5715E-03
1
              HEAD IN LAYER   4 AT END OF TIME STEP  50 IN STRESS PERIOD    2
  ---------------------------------------------------------------------------

            1           2           3           4           5           6           7           8           9          10
 ........................................................................................................................
   1    9.998       8.935       7.864       6.781       5.687       4.579       3.456       2.318       1.166      2.5601E-03
   2    9.998       8.937       7.867       6.787       5.695       4.588       3.463       2.323       1.169      2.5656E-03
   3    9.998       8.940       7.873       6.798       5.713       4.609       3.481       2.334       1.174      2.5772E-03
   4    9.998       8.943       7.883       6.818       5.745       4.654       3.514       2.353       1.182      2.5950E-03
   5    9.998       8.947       7.894       6.842       5.797       4.746       3.567       2.378       1.192      2.6156E-03
   6    9.998       8.949       7.900       6.860       5.854       4.919       3.624       2.396       1.197      2.6277E-03
   7    9.998       8.948       7.894       6.843       5.798       4.746       3.568       2.378       1.192      2.6162E-03
   8    9.998       8.944       7.884       6.819       5.747       4.656       3.516       2.354       1.183      2.5965E-03
   9    9.998       8.941       7.875       6.802       5.717       4.614       3.485       2.337       1.176      2.5804E-03
  10    9.998       8.939       7.871       6.793       5.703       4.597       3.471       2.329       1.172      2.5720E-03
1
              HEAD IN LAYER   5 AT END OF TIME STEP  50 IN STRESS PERIOD    2
  ---------------------------------------------------------------------------

            1           2           3           4           5           6           7           8           9          10
 ........................................................................................................................
   1    9.998       8.935       7.863       6.781       5.686       4.578       3.455       2.317       1.166      2.5592E-03
   2    9.998       8.936       7.866       6.786       5.694       4.587       3.463       2.323       1.168      2.5647E-03
   3    9.998       8.939       7.873       6.798       5.712       4.609       3.481       2.334       1.174      2.5764E-03
   4    9.998       8.943       7.883       6.817       5.745       4.654       3.514       2.353       1.182      2.5943E-03
   5    9.998       8.947       7.894       6.842       5.797       4.742       3.566       2.377       1.191      2.6150E-03
   6    9.998       8.949       7.900       6.860       5.851       4.890       3.621       2.395       1.197      2.6271E-03
   7    9.998       8.947       7.894       6.843       5.798       4.743       3.567       2.378       1.192      2.6156E-03
   8    9.998       8.944       7.884       6.819       5.747       4.656       3.516       2.354       1.183      2.5959E-03
   9    9.998       8.940       7.875       6.801       5.716       4.614       3.485       2.337       1.175      2.5797E-03
  10    9.998       8.938       7.870       6.793       5.703       4.596       3.471       2.328       1.171      2.5712E-03

 HEAD WILL BE SAVED ON UNIT   51 AT END OF TIME STEP   50, STRESS PERIOD    2

 DRAWDOWN WILL BE SAVED ON UNIT   52 AT END OF TIME STEP   50, STRESS PERIOD    2
1
  VOLUMETRIC BUDGET FOR ENTIRE MODEL AT END OF TIME STEP   50, STRESS PERIOD   2
  ------------------------------------------------------------------------------

     CUMULATIVE VOLUMES      L**3       RATES FOR THIS TIME STEP      L**3/T
     ------------------                 ------------------------

           IN:                                      IN:
           ---                                      ---
             STORAGE =           0.0000               STORAGE =           0.0000
       CONSTANT HEAD =           0.0000         CONSTANT HEAD =           0.0000
               WELLS =        5000.0000                 WELLS =         100.0000
     HEAD DEP BOUNDS =       59235.6836       HEAD DEP BOUNDS =        1154.4677

            TOTAL IN =       64235.6836              TOTAL IN =        1254.4677

          OUT:                                     OUT:
          ----                                     ----
             STORAGE =        4337.6768               STORAGE =          69.1250
       CONSTANT HEAD =           0.0000         CONSTANT HEAD =           0.0000
               WELLS =           0.0000                 WELLS =           0.0000
     HEAD DEP BOUNDS =       59897.3398       HEAD DEP BOUNDS =        1185.3169

           TOTAL OUT =       64235.0156             TOTAL OUT =        1254.4419

            IN - OUT =           0.6680              IN - OUT =       2.5757E-02

 PERCENT DISCREPANCY =           0.00     PERCENT DISCREPANCY =           0.00






         TIME SUMMARY AT END OF TIME STEP   50 IN STRESS PERIOD    2
                    SECONDS     MINUTES      HOURS       DAYS        YEARS
                    -----------------------------------------------------------
   TIME STEP LENGTH  86400.      1440.0      24.000      1.0000     2.73785E-03
 STRESS PERIOD TIME 4.32000E+06  72000.      1200.0      50.000     0.13689    
         TOTAL TIME 4.40640E+06  73440.      1224.0      51.000     0.13963    
1
 
 SOLVING FOR HEAD 

 OUTPUT CONTROL FOR STRESS PERIOD    2   TIME STEP   51
    SAVE HEAD FOR ALL LAYERS
    SAVE DRAWDOWN FOR ALL LAYERS
    SAVE BUDGET
    PRINT HEAD FOR ALL LAYERS
    PRINT BUDGET
 UBDSV1 SAVING "         STORAGE" ON UNIT  53 AT TIME STEP 51, STRESS PERIOD   2
 UBDSV2 SAVING "   CONSTANT HEAD" ON UNIT  53 AT TIME STEP 51, STRESS PERIOD   2
 UBDSV1 SAVING "FLOW RIGHT FACE " ON UNIT  53 AT TIME STEP 51, STRESS PERIOD   2
 UBDSV1 SAVING "FLOW FRONT FACE " ON UNIT  53 AT TIME STEP 51, STRESS PERIOD   2
 UBDSV1 SAVING "FLOW LOWER FACE " ON UNIT  53 AT TIME STEP 51, STRESS PERIOD   2

 SAVING SATURATED THICKNESS AND FLOW TERMS ON UNIT   54 FOR MT3DMS
 BY THE LINK-MT3DMS PACKAGE V7 AT TIME STEP   51, STRESS PERIOD    2

1
              HEAD IN LAYER   1 AT END OF TIME STEP  51 IN STRESS PERIOD    2
  ---------------------------------------------------------------------------

            1           2           3           4           5           6           7           8           9          10
 ........................................................................................................................
   1    9.998       8.939       7.867       6.785       5.690       4.582       3.459       2.322       1.171      1.5260E-03
   2    9.998       8.940       7.870       6.790       5.697       4.591       3.466       2.327       1.173      1.5292E-03
   3    9.998       8.943       7.876       6.801       5.715       4.612       3.484       2.338       1.178      1.5360E-03
   4    9.998       8.947       7.886       6.819       5.747       4.657       3.516       2.356       1.186      1.5468E-03
   5    9.998       8.950       7.896       6.843       5.800       4.759       3.570       2.380       1.195      1.5593E-03
   6    9.998       8.952       7.902       6.862       5.866       5.053       3.639       2.399       1.201      1.5668E-03
   7    9.998       8.951       7.896       6.844       5.800       4.759       3.571       2.381       1.195      1.5597E-03
   8    9.998       8.947       7.887       6.821       5.749       4.658       3.518       2.357       1.186      1.5476E-03
   9    9.998       8.944       7.878       6.804       5.718       4.616       3.487       2.340       1.179      1.5379E-03
  10    9.998       8.942       7.874       6.795       5.705       4.599       3.474       2.332       1.176      1.5328E-03
1
              HEAD IN LAYER   2 AT END OF TIME STEP  51 IN STRESS PERIOD    2
  ---------------------------------------------------------------------------

            1           2           3           4           5           6           7           8           9          10
 ........................................................................................................................
   1    9.998       8.937       7.866       6.783       5.689       4.581       3.458       2.320       1.169      2.5104E-03
   2    9.998       8.939       7.869       6.789       5.696       4.590       3.465       2.325       1.171      2.5156E-03
   3    9.998       8.941       7.875       6.800       5.714       4.611       3.483       2.337       1.176      2.5268E-03
   4    9.998       8.945       7.885       6.819       5.747       4.656       3.516       2.355       1.185      2.5440E-03
   5    9.998       8.949       7.895       6.843       5.800       4.758       3.570       2.380       1.194      2.5640E-03
   6    9.998       8.951       7.901       6.862       5.865       5.094       3.637       2.399       1.199      2.5760E-03
   7    9.998       8.949       7.896       6.844       5.801       4.758       3.571       2.380       1.194      2.5646E-03
   8    9.998       8.946       7.886       6.820       5.749       4.658       3.518       2.356       1.185      2.5454E-03
   9    9.998       8.942       7.877       6.803       5.718       4.615       3.487       2.339       1.178      2.5298E-03
  10    9.998       8.941       7.873       6.795       5.704       4.598       3.473       2.331       1.174      2.5216E-03
1
              HEAD IN LAYER   3 AT END OF TIME STEP  51 IN STRESS PERIOD    2
  ---------------------------------------------------------------------------

            1           2           3           4           5           6           7           8           9          10
 ........................................................................................................................
   1    9.998       8.936       7.865       6.782       5.688       4.580       3.457       2.319       1.167      2.5604E-03
   2    9.998       8.938       7.868       6.788       5.696       4.589       3.465       2.324       1.170      2.5659E-03
   3    9.998       8.940       7.874       6.800       5.714       4.611       3.482       2.336       1.175      2.5775E-03
   4    9.998       8.944       7.884       6.819       5.747       4.656       3.516       2.354       1.183      2.5954E-03
   5    9.998       8.948       7.895       6.843       5.799       4.752       3.569       2.379       1.193      2.6160E-03
   6    9.998       8.950       7.901       6.861       5.860       4.984       3.631       2.398       1.198      2.6282E-03
   7    9.998       8.949       7.895       6.844       5.800       4.753       3.570       2.380       1.193      2.6166E-03
   8    9.998       8.945       7.885       6.820       5.749       4.658       3.517       2.356       1.184      2.5969E-03
   9    9.998       8.941       7.876       6.803       5.718       4.615       3.486       2.338       1.177      2.5808E-03
  10    9.998       8.940       7.872       6.794       5.704       4.598       3.473       2.330       1.173      2.5723E-03
1
              HEAD IN LAYER   4 AT END OF TIME STEP  51 IN STRESS PERIOD    2
  ---------------------------------------------------------------------------

            1           2           3           4           5           6           7           8           9          10
 ........................................................................................................................
   1    9.998       8.935       7.864       6.782       5.687       4.579       3.456       2.318       1.166      2.5606E-03
   2    9.998       8.937       7.867       6.787       5.695       4.588       3.464       2.323       1.169      2.5661E-03
   3    9.998       8.940       7.874       6.799       5.713       4.610       3.482       2.335       1.174      2.5779E-03
   4    9.998       8.944       7.884       6.818       5.747       4.655       3.515       2.354       1.183      2.5960E-03
   5    9.998       8.948       7.894       6.843       5.799       4.747       3.568       2.379       1.192      2.6167E-03
   6    9.998       8.950       7.901       6.861       5.855       4.921       3.626       2.397       1.198      2.6289E-03
   7    9.998       8.948       7.895       6.844       5.800       4.748       3.569       2.379       1.192      2.6173E-03
   8    9.998       8.944       7.885       6.820       5.748       4.658       3.517       2.355       1.183      2.5976E-03
   9    9.998       8.941       7.876       6.802       5.718       4.615       3.486       2.338       1.176      2.5813E-03
  10    9.998       8.939       7.871       6.794       5.704       4.598       3.472       2.329       1.172      2.5727E-03
1
              HEAD IN LAYER   5 AT END OF TIME STEP  51 IN STRESS PERIOD    2
  ---------------------------------------------------------------------------

            1           2           3           4           5           6           7           8           9          10
 ........................................................................................................................
   1    9.998       8.935       7.864       6.781       5.687       4.579       3.456       2.318       1.166      2.5597E-03
   2    9.998       8.937       7.867       6.787       5.695       4.588       3.464       2.323       1.169      2.5653E-03
   3    9.998       8.939       7.873       6.799       5.713       4.610       3.482       2.335       1.174      2.5772E-03
   4    9.998       8.943       7.883       6.818       5.746       4.655       3.515       2.354       1.182      2.5953E-03
   5    9.998       8.948       7.894       6.843       5.798       4.744       3.568       2.378       1.192      2.6161E-03
   6    9.998       8.950       7.900       6.861       5.852       4.892       3.622       2.396       1.197      2.6283E-03
   7    9.998       8.948       7.895       6.844       5.799       4.745       3.568       2.379       1.192      2.6167E-03
   8    9.998       8.944       7.884       6.820       5.748       4.657       3.517       2.355       1.183      2.5969E-03
   9    9.998       8.941       7.876       6.802       5.717       4.615       3.486       2.338       1.176      2.5806E-03
  10    9.998       8.939       7.871       6.793       5.703       4.597       3.472       2.329       1.172      2.5720E-03

 HEAD WILL BE SAVED ON UNIT   51 AT END OF TIME STEP   51, STRESS PERIOD    2

 DRAWDOWN WILL BE SAVED ON UNIT   52 AT END OF TIME STEP   51, STRESS PERIOD    2
1
  VOLUMETRIC BUDGET FOR ENTIRE MODEL AT END OF TIME STEP   51, STRESS PERIOD   2
  ------------------------------------------------------------------------------

     CUMULATIVE VOLUMES      L**3       RATES FOR THIS TIME STEP      L**3/T
     ------------------                 ------------------------

           IN:                                      IN:
           ---                                      ---
             STORAGE =           0.0000               STORAGE =           0.0000
       CONSTANT HEAD =           0.0000         CONSTANT HEAD =           0.0000
               WELLS =        5100.0000                 WELLS =         100.0000
     HEAD DEP BOUNDS =       60389.8398       HEAD DEP BOUNDS =        1154.1550

            TOTAL IN =       65489.8398              TOTAL IN =        1254.1550

          OUT:                                     OUT:
          ----                                     ----
             STORAGE =        4406.0723               STORAGE =          68.3957
       CONSTANT HEAD =           0.0000         CONSTANT HEAD =           0.0000
               WELLS =           0.0000                 WELLS =           0.0000
     HEAD DEP BOUNDS =       61083.0703       HEAD DEP BOUNDS =        1185.7319

           TOTAL OUT =       65489.1406             TOTAL OUT =        1254.1277

            IN - OUT =           0.6992              IN - OUT =       2.7344E-02

 PERCENT DISCREPANCY =           0.00     PERCENT DISCREPANCY =           0.00






         TIME SUMMARY AT END OF TIME STEP   51 IN STRESS PERIOD    2
                    SECONDS     MINUTES      HOURS       DAYS        YEARS
                    -----------------------------------------------------------
   TIME STEP LENGTH  86400.      1440.0      24.000      1.0000     2.73785E-03
 STRESS PERIOD TIME 4.40640E+06  73440.      1224.0      51.000     0.13963    
         TOTAL TIME 4.49280E+06  74880.      1248.0      52.000     0.14237    
1
 
 SOLVING FOR HEAD 

 OUTPUT CONTROL FOR STRESS PERIOD    2   TIME STEP   52
    SAVE HEAD FOR ALL LAYERS
    SAVE DRAWDOWN FOR ALL LAYERS
    SAVE BUDGET
    PRINT HEAD FOR ALL LAYERS
    PRINT BUDGET
 UBDSV1 SAVING "         STORAGE" ON UNIT  53 AT TIME STEP 52, STRESS PERIOD   2
 UBDSV2 SAVING "   CONSTANT HEAD" ON UNIT  53 AT TIME STEP 52, STRESS PERIOD   2
 UBDSV1 SAVING "FLOW RIGHT FACE " ON UNIT  53 AT TIME STEP 52, STRESS PERIOD   2
 UBDSV1 SAVING "FLOW FRONT FACE " ON UNIT  53 AT TIME STEP 52, STRESS PERIOD   2
 UBDSV1 SAVING "FLOW LOWER FACE " ON UNIT  53 AT TIME STEP 52, STRESS PERIOD   2

 SAVING SATURATED THICKNESS AND FLOW TERMS ON UNIT   54 FOR MT3DMS
 BY THE LINK-MT3DMS PACKAGE V7 AT TIME STEP   52, STRESS PERIOD    2

1
              HEAD IN LAYER   1 AT END OF TIME STEP  52 IN STRESS PERIOD    2
  ---------------------------------------------------------------------------

            1           2           3           4           5           6           7           8           9          10
 ........................................................................................................................
   1    9.998       8.939       7.868       6.785       5.691       4.583       3.460       2.322       1.171      1.5262E-03
   2    9.998       8.940       7.871       6.790       5.698       4.591       3.467       2.327       1.173      1.5295E-03
   3    9.998       8.943       7.877       6.802       5.716       4.613       3.485       2.338       1.178      1.5366E-03
   4    9.998       8.947       7.886       6.820       5.748       4.658       3.518       2.357       1.186      1.5474E-03
   5    9.998       8.951       7.897       6.845       5.801       4.760       3.572       2.381       1.196      1.5600E-03
   6    9.998       8.953       7.903       6.863       5.867       5.055       3.640       2.400       1.201      1.5676E-03
   7    9.998       8.951       7.897       6.845       5.802       4.761       3.572       2.382       1.196      1.5604E-03
   8    9.998       8.947       7.887       6.822       5.750       4.660       3.519       2.358       1.187      1.5483E-03
   9    9.998       8.944       7.879       6.805       5.719       4.617       3.488       2.341       1.180      1.5385E-03
  10    9.998       8.942       7.874       6.796       5.706       4.600       3.475       2.333       1.176      1.5333E-03
1
              HEAD IN LAYER   2 AT END OF TIME STEP  52 IN STRESS PERIOD    2
  ---------------------------------------------------------------------------

            1           2           3           4           5           6           7           8           9          10
 ........................................................................................................................
   1    9.998       8.938       7.866       6.784       5.689       4.581       3.458       2.321       1.169      2.5108E-03
   2    9.998       8.939       7.869       6.789       5.697       4.590       3.466       2.326       1.172      2.5162E-03
   3    9.998       8.942       7.876       6.801       5.715       4.612       3.484       2.337       1.177      2.5275E-03
   4    9.998       8.946       7.885       6.820       5.748       4.658       3.517       2.356       1.185      2.5450E-03
   5    9.998       8.950       7.896       6.844       5.801       4.759       3.571       2.381       1.194      2.5652E-03
   6    9.998       8.952       7.902       6.863       5.867       5.095       3.639       2.400       1.200      2.5772E-03
   7    9.998       8.950       7.896       6.845       5.802       4.760       3.572       2.381       1.195      2.5658E-03
   8    9.998       8.946       7.886       6.821       5.750       4.660       3.519       2.357       1.186      2.5465E-03
   9    9.998       8.943       7.878       6.804       5.719       4.616       3.488       2.340       1.178      2.5307E-03
  10    9.998       8.941       7.873       6.795       5.705       4.599       3.474       2.332       1.174      2.5224E-03
1
              HEAD IN LAYER   3 AT END OF TIME STEP  52 IN STRESS PERIOD    2
  ---------------------------------------------------------------------------

            1           2           3           4           5           6           7           8           9          10
 ........................................................................................................................
   1    9.998       8.936       7.865       6.783       5.689       4.580       3.457       2.319       1.168      2.5609E-03
   2    9.998       8.938       7.868       6.788       5.696       4.590       3.465       2.325       1.170      2.5664E-03
   3    9.998       8.941       7.875       6.800       5.715       4.612       3.483       2.336       1.176      2.5782E-03
   4    9.998       8.945       7.885       6.820       5.748       4.657       3.517       2.355       1.184      2.5963E-03
   5    9.998       8.949       7.896       6.844       5.801       4.754       3.570       2.380       1.193      2.6171E-03
   6    9.998       8.951       7.902       6.863       5.862       4.986       3.633       2.399       1.199      2.6294E-03
   7    9.998       8.949       7.896       6.845       5.801       4.754       3.571       2.381       1.194      2.6177E-03
   8    9.998       8.945       7.886       6.821       5.750       4.659       3.519       2.357       1.185      2.5979E-03
   9    9.998       8.942       7.877       6.804       5.719       4.616       3.487       2.339       1.177      2.5816E-03
  10    9.998       8.940       7.872       6.795       5.705       4.599       3.473       2.331       1.173      2.5731E-03
1
              HEAD IN LAYER   4 AT END OF TIME STEP  52 IN STRESS PERIOD    2
  ---------------------------------------------------------------------------

            1           2           3           4           5           6           7           8           9          10
 ........................................................................................................................
   1    9.998       8.936       7.864       6.782       5.688       4.580       3.457       2.319       1.167      2.5610E-03
   2    9.998       8.937       7.868       6.788       5.696       4.589       3.465       2.324       1.169      2.5667E-03
   3    9.998       8.940       7.874       6.800       5.714       4.611       3.483       2.336       1.175      2.5787E-03
   4    9.998       8.944       7.884       6.819       5.748       4.657       3.516       2.355       1.183      2.5969E-03
   5    9.998       8.948       7.895       6.844       5.800       4.748       3.569       2.380       1.193      2.6178E-03
   6    9.998       8.950       7.901       6.862       5.857       4.922       3.627       2.398       1.198      2.6301E-03
   7    9.998       8.948       7.896       6.845       5.801       4.749       3.570       2.380       1.193      2.6185E-03
   8    9.998       8.945       7.885       6.821       5.750       4.659       3.518       2.356       1.184      2.5986E-03
   9    9.998       8.941       7.877       6.803       5.719       4.616       3.487       2.339       1.176      2.5821E-03
  10    9.998       8.939       7.872       6.794       5.705       4.599       3.473       2.330       1.172      2.5735E-03
1
              HEAD IN LAYER   5 AT END OF TIME STEP  52 IN STRESS PERIOD    2
  ---------------------------------------------------------------------------

            1           2           3           4           5           6           7           8           9          10
 ........................................................................................................................
   1    9.998       8.935       7.864       6.782       5.688       4.580       3.456       2.318       1.166      2.5601E-03
   2    9.998       8.937       7.867       6.787       5.696       4.589       3.464       2.324       1.169      2.5658E-03
   3    9.998       8.940       7.874       6.800       5.714       4.611       3.483       2.335       1.174      2.5779E-03
   4    9.998       8.944       7.884       6.819       5.748       4.656       3.516       2.355       1.183      2.5962E-03
   5    9.998       8.948       7.895       6.844       5.800       4.745       3.569       2.379       1.192      2.6172E-03
   6    9.998       8.950       7.901       6.862       5.854       4.893       3.624       2.397       1.198      2.6295E-03
   7    9.998       8.948       7.895       6.845       5.800       4.746       3.570       2.380       1.193      2.6179E-03
   8    9.998       8.944       7.885       6.821       5.750       4.659       3.518       2.356       1.183      2.5979E-03
   9    9.998       8.941       7.876       6.803       5.718       4.616       3.487       2.338       1.176      2.5814E-03
  10    9.998       8.939       7.872       6.794       5.704       4.598       3.473       2.330       1.172      2.5727E-03

 HEAD WILL BE SAVED ON UNIT   51 AT END OF TIME STEP   52, STRESS PERIOD    2

 DRAWDOWN WILL BE SAVED ON UNIT   52 AT END OF TIME STEP   52, STRESS PERIOD    2
1
  VOLUMETRIC BUDGET FOR ENTIRE MODEL AT END OF TIME STEP   52, STRESS PERIOD   2
  ------------------------------------------------------------------------------

     CUMULATIVE VOLUMES      L**3       RATES FOR THIS TIME STEP      L**3/T
     ------------------                 ------------------------

           IN:                                      IN:
           ---                                      ---
             STORAGE =           0.0000               STORAGE =           0.0000
       CONSTANT HEAD =           0.0000         CONSTANT HEAD =           0.0000
               WELLS =        5200.0000                 WELLS =         100.0000
     HEAD DEP BOUNDS =       61543.6836       HEAD DEP BOUNDS =        1153.8435

            TOTAL IN =       66743.6875              TOTAL IN =        1253.8435

          OUT:                                     OUT:
          ----                                     ----
             STORAGE =        4473.7368               STORAGE =          67.6647
       CONSTANT HEAD =           0.0000         CONSTANT HEAD =           0.0000
               WELLS =           0.0000                 WELLS =           0.0000
     HEAD DEP BOUNDS =       62269.2109       HEAD DEP BOUNDS =        1186.1418

           TOTAL OUT =       66742.9453             TOTAL OUT =        1253.8065

            IN - OUT =           0.7422              IN - OUT =       3.6987E-02

 PERCENT DISCREPANCY =           0.00     PERCENT DISCREPANCY =           0.00






         TIME SUMMARY AT END OF TIME STEP   52 IN STRESS PERIOD    2
                    SECONDS     MINUTES      HOURS       DAYS        YEARS
                    -----------------------------------------------------------
   TIME STEP LENGTH  86400.      1440.0      24.000      1.0000     2.73785E-03
 STRESS PERIOD TIME 4.49280E+06  74880.      1248.0      52.000     0.14237    
         TOTAL TIME 4.57920E+06  76320.      1272.0      53.000     0.14511    
1
 
 SOLVING FOR HEAD 

 OUTPUT CONTROL FOR STRESS PERIOD    2   TIME STEP   53
    SAVE HEAD FOR ALL LAYERS
    SAVE DRAWDOWN FOR ALL LAYERS
    SAVE BUDGET
    PRINT HEAD FOR ALL LAYERS
    PRINT BUDGET
 UBDSV1 SAVING "         STORAGE" ON UNIT  53 AT TIME STEP 53, STRESS PERIOD   2
 UBDSV2 SAVING "   CONSTANT HEAD" ON UNIT  53 AT TIME STEP 53, STRESS PERIOD   2
 UBDSV1 SAVING "FLOW RIGHT FACE " ON UNIT  53 AT TIME STEP 53, STRESS PERIOD   2
 UBDSV1 SAVING "FLOW FRONT FACE " ON UNIT  53 AT TIME STEP 53, STRESS PERIOD   2
 UBDSV1 SAVING "FLOW LOWER FACE " ON UNIT  53 AT TIME STEP 53, STRESS PERIOD   2

 SAVING SATURATED THICKNESS AND FLOW TERMS ON UNIT   54 FOR MT3DMS
 BY THE LINK-MT3DMS PACKAGE V7 AT TIME STEP   53, STRESS PERIOD    2

1
              HEAD IN LAYER   1 AT END OF TIME STEP  53 IN STRESS PERIOD    2
  ---------------------------------------------------------------------------

            1           2           3           4           5           6           7           8           9          10
 ........................................................................................................................
   1    9.998       8.939       7.868       6.785       5.691       4.583       3.460       2.323       1.171      1.5265E-03
   2    9.998       8.941       7.871       6.791       5.699       4.592       3.468       2.328       1.173      1.5299E-03
   3    9.998       8.943       7.877       6.802       5.716       4.614       3.486       2.339       1.179      1.5370E-03
   4    9.998       8.947       7.887       6.821       5.749       4.659       3.519       2.358       1.187      1.5480E-03
   5    9.998       8.951       7.897       6.846       5.803       4.762       3.573       2.382       1.196      1.5608E-03
   6    9.998       8.953       7.903       6.864       5.869       5.057       3.642       2.401       1.202      1.5684E-03
   7    9.998       8.951       7.898       6.846       5.803       4.762       3.574       2.383       1.196      1.5611E-03
   8    9.998       8.948       7.888       6.823       5.751       4.661       3.520       2.359       1.187      1.5490E-03
   9    9.998       8.944       7.879       6.805       5.720       4.618       3.489       2.342       1.180      1.5390E-03
  10    9.998       8.942       7.875       6.797       5.707       4.601       3.476       2.333       1.176      1.5338E-03
1
              HEAD IN LAYER   2 AT END OF TIME STEP  53 IN STRESS PERIOD    2
  ---------------------------------------------------------------------------

            1           2           3           4           5           6           7           8           9          10
 ........................................................................................................................
   1    9.998       8.938       7.866       6.784       5.690       4.582       3.459       2.321       1.169      2.5113E-03
   2    9.998       8.939       7.870       6.790       5.698       4.591       3.467       2.326       1.172      2.5167E-03
   3    9.998       8.942       7.876       6.802       5.716       4.613       3.485       2.338       1.177      2.5282E-03
   4    9.998       8.946       7.886       6.821       5.749       4.659       3.518       2.357       1.185      2.5459E-03
   5    9.998       8.950       7.897       6.846       5.803       4.761       3.573       2.382       1.195      2.5663E-03
   6    9.998       8.952       7.903       6.864       5.868       5.097       3.640       2.401       1.201      2.5784E-03
   7    9.998       8.950       7.897       6.846       5.803       4.761       3.573       2.382       1.195      2.5669E-03
   8    9.998       8.946       7.887       6.822       5.751       4.661       3.520       2.358       1.186      2.5475E-03
   9    9.998       8.943       7.878       6.805       5.720       4.618       3.489       2.341       1.179      2.5315E-03
  10    9.998       8.941       7.874       6.796       5.706       4.600       3.475       2.332       1.175      2.5231E-03
1
              HEAD IN LAYER   3 AT END OF TIME STEP  53 IN STRESS PERIOD    2
  ---------------------------------------------------------------------------

            1           2           3           4           5           6           7           8           9          10
 ........................................................................................................................
   1    9.998       8.937       7.865       6.783       5.689       4.581       3.458       2.320       1.168      2.5613E-03
   2    9.998       8.938       7.869       6.789       5.697       4.590       3.466       2.325       1.170      2.5670E-03
   3    9.998       8.941       7.875       6.801       5.715       4.613       3.484       2.337       1.176      2.5790E-03
   4    9.998       8.945       7.885       6.820       5.749       4.658       3.518       2.356       1.184      2.5973E-03
   5    9.998       8.949       7.896       6.845       5.802       4.755       3.572       2.381       1.194      2.6182E-03
   6    9.998       8.951       7.902       6.864       5.863       4.987       3.634       2.400       1.199      2.6306E-03
   7    9.998       8.949       7.897       6.846       5.803       4.756       3.572       2.382       1.194      2.6189E-03
   8    9.998       8.946       7.886       6.822       5.751       4.660       3.520       2.358       1.185      2.5989E-03
   9    9.998       8.942       7.878       6.804       5.720       4.617       3.488       2.340       1.177      2.5825E-03
  10    9.998       8.940       7.873       6.795       5.706       4.600       3.474       2.331       1.174      2.5738E-03
1
              HEAD IN LAYER   4 AT END OF TIME STEP  53 IN STRESS PERIOD    2
  ---------------------------------------------------------------------------

            1           2           3           4           5           6           7           8           9          10
 ........................................................................................................................
   1    9.998       8.936       7.865       6.783       5.688       4.580       3.457       2.319       1.167      2.5615E-03
   2    9.998       8.937       7.868       6.788       5.697       4.590       3.465       2.324       1.170      2.5673E-03
   3    9.998       8.940       7.875       6.800       5.715       4.612       3.484       2.336       1.175      2.5794E-03
   4    9.998       8.944       7.885       6.820       5.749       4.658       3.517       2.356       1.183      2.5979E-03
   5    9.998       8.949       7.896       6.845       5.801       4.750       3.571       2.381       1.193      2.6189E-03
   6    9.998       8.951       7.902       6.863       5.858       4.924       3.628       2.399       1.199      2.6313E-03
   7    9.998       8.949       7.896       6.846       5.802       4.751       3.571       2.381       1.193      2.6196E-03
   8    9.998       8.945       7.886       6.822       5.751       4.660       3.519       2.357       1.184      2.5996E-03
   9    9.998       8.941       7.877       6.804       5.720       4.617       3.488       2.339       1.177      2.5830E-03
  10    9.998       8.939       7.872       6.795       5.705       4.599       3.474       2.331       1.173      2.5743E-03
1
              HEAD IN LAYER   5 AT END OF TIME STEP  53 IN STRESS PERIOD    2
  ---------------------------------------------------------------------------

            1           2           3           4           5           6           7           8           9          10
 ........................................................................................................................
   1    9.998       8.935       7.864       6.782       5.688       4.580       3.457       2.319       1.166      2.5606E-03
   2    9.998       8.937       7.868       6.788       5.696       4.589       3.465       2.324       1.169      2.5664E-03
   3    9.998       8.940       7.874       6.800       5.715       4.612       3.483       2.336       1.175      2.5786E-03
   4    9.998       8.944       7.885       6.820       5.749       4.657       3.517       2.355       1.183      2.5972E-03
   5    9.998       8.948       7.896       6.845       5.801       4.747       3.570       2.380       1.193      2.6183E-03
   6    9.998       8.950       7.902       6.863       5.855       4.894       3.625       2.398       1.198      2.6306E-03
   7    9.998       8.949       7.896       6.846       5.802       4.747       3.571       2.381       1.193      2.6190E-03
   8    9.998       8.945       7.886       6.822       5.751       4.660       3.519       2.357       1.184      2.5989E-03
   9    9.998       8.941       7.877       6.804       5.719       4.617       3.488       2.339       1.176      2.5823E-03
  10    9.998       8.939       7.872       6.795       5.705       4.599       3.474       2.330       1.172      2.5735E-03

 HEAD WILL BE SAVED ON UNIT   51 AT END OF TIME STEP   53, STRESS PERIOD    2

 DRAWDOWN WILL BE SAVED ON UNIT   52 AT END OF TIME STEP   53, STRESS PERIOD    2
1
  VOLUMETRIC BUDGET FOR ENTIRE MODEL AT END OF TIME STEP   53, STRESS PERIOD   2
  ------------------------------------------------------------------------------

     CUMULATIVE VOLUMES      L**3       RATES FOR THIS TIME STEP      L**3/T
     ------------------                 ------------------------

           IN:                                      IN:
           ---                                      ---
             STORAGE =           0.0000               STORAGE =           0.0000
       CONSTANT HEAD =           0.0000         CONSTANT HEAD =           0.0000
               WELLS =        5300.0000                 WELLS =         100.0000
     HEAD DEP BOUNDS =       62697.2031       HEAD DEP BOUNDS =        1153.5186

            TOTAL IN =       67997.2031              TOTAL IN =        1253.5186

          OUT:                                     OUT:
          ----                                     ----
             STORAGE =        4540.6821               STORAGE =          66.9452
       CONSTANT HEAD =           0.0000         CONSTANT HEAD =           0.0000
               WELLS =           0.0000                 WELLS =           0.0000
     HEAD DEP BOUNDS =       63455.7617       HEAD DEP BOUNDS =        1186.5494

           TOTAL OUT =       67996.4453             TOTAL OUT =        1253.4946

            IN - OUT =           0.7578              IN - OUT =       2.3926E-02

 PERCENT DISCREPANCY =           0.00     PERCENT DISCREPANCY =           0.00






         TIME SUMMARY AT END OF TIME STEP   53 IN STRESS PERIOD    2
                    SECONDS     MINUTES      HOURS       DAYS        YEARS
                    -----------------------------------------------------------
   TIME STEP LENGTH  86400.      1440.0      24.000      1.0000     2.73785E-03
 STRESS PERIOD TIME 4.57920E+06  76320.      1272.0      53.000     0.14511    
         TOTAL TIME 4.66560E+06  77760.      1296.0      54.000     0.14784    
1
 
 SOLVING FOR HEAD 

 OUTPUT CONTROL FOR STRESS PERIOD    2   TIME STEP   54
    SAVE HEAD FOR ALL LAYERS
    SAVE DRAWDOWN FOR ALL LAYERS
    SAVE BUDGET
    PRINT HEAD FOR ALL LAYERS
    PRINT BUDGET
 UBDSV1 SAVING "         STORAGE" ON UNIT  53 AT TIME STEP 54, STRESS PERIOD   2
 UBDSV2 SAVING "   CONSTANT HEAD" ON UNIT  53 AT TIME STEP 54, STRESS PERIOD   2
 UBDSV1 SAVING "FLOW RIGHT FACE " ON UNIT  53 AT TIME STEP 54, STRESS PERIOD   2
 UBDSV1 SAVING "FLOW FRONT FACE " ON UNIT  53 AT TIME STEP 54, STRESS PERIOD   2
 UBDSV1 SAVING "FLOW LOWER FACE " ON UNIT  53 AT TIME STEP 54, STRESS PERIOD   2

 SAVING SATURATED THICKNESS AND FLOW TERMS ON UNIT   54 FOR MT3DMS
 BY THE LINK-MT3DMS PACKAGE V7 AT TIME STEP   54, STRESS PERIOD    2

1
              HEAD IN LAYER   1 AT END OF TIME STEP  54 IN STRESS PERIOD    2
  ---------------------------------------------------------------------------

            1           2           3           4           5           6           7           8           9          10
 ........................................................................................................................
   1    9.998       8.939       7.868       6.786       5.692       4.584       3.461       2.323       1.171      1.5268E-03
   2    9.998       8.941       7.871       6.791       5.699       4.593       3.468       2.328       1.174      1.5302E-03
   3    9.998       8.944       7.878       6.803       5.717       4.615       3.486       2.340       1.179      1.5375E-03
   4    9.998       8.948       7.887       6.822       5.750       4.660       3.520       2.359       1.187      1.5486E-03
   5    9.998       8.951       7.898       6.847       5.804       4.763       3.574       2.383       1.197      1.5615E-03
   6    9.998       8.953       7.904       6.865       5.870       5.058       3.643       2.403       1.202      1.5691E-03
   7    9.998       8.952       7.899       6.847       5.805       4.764       3.575       2.384       1.197      1.5619E-03
   8    9.998       8.948       7.889       6.824       5.752       4.662       3.522       2.360       1.188      1.5496E-03
   9    9.998       8.945       7.880       6.806       5.721       4.619       3.490       2.342       1.180      1.5395E-03
  10    9.998       8.943       7.875       6.798       5.708       4.602       3.476       2.334       1.177      1.5342E-03
1
              HEAD IN LAYER   2 AT END OF TIME STEP  54 IN STRESS PERIOD    2
  ---------------------------------------------------------------------------

            1           2           3           4           5           6           7           8           9          10
 ........................................................................................................................
   1    9.998       8.938       7.867       6.785       5.691       4.583       3.459       2.322       1.169      2.5117E-03
   2    9.998       8.939       7.870       6.790       5.698       4.592       3.467       2.327       1.172      2.5173E-03
   3    9.998       8.942       7.877       6.802       5.717       4.614       3.486       2.339       1.178      2.5290E-03
   4    9.998       8.946       7.887       6.822       5.750       4.660       3.519       2.358       1.186      2.5469E-03
   5    9.998       8.950       7.898       6.847       5.804       4.762       3.574       2.383       1.195      2.5674E-03
   6    9.998       8.952       7.904       6.865       5.870       5.098       3.641       2.402       1.201      2.5796E-03
   7    9.998       8.951       7.898       6.847       5.805       4.763       3.575       2.383       1.196      2.5681E-03
   8    9.998       8.947       7.888       6.823       5.752       4.662       3.521       2.359       1.187      2.5485E-03
   9    9.998       8.943       7.879       6.806       5.721       4.619       3.490       2.342       1.179      2.5324E-03
  10    9.998       8.941       7.874       6.797       5.707       4.601       3.476       2.333       1.175      2.5239E-03
1
              HEAD IN LAYER   3 AT END OF TIME STEP  54 IN STRESS PERIOD    2
  ---------------------------------------------------------------------------

            1           2           3           4           5           6           7           8           9          10
 ........................................................................................................................
   1    9.998       8.937       7.866       6.784       5.690       4.582       3.458       2.320       1.168      2.5618E-03
   2    9.998       8.938       7.869       6.789       5.698       4.591       3.466       2.326       1.171      2.5676E-03
   3    9.998       8.941       7.876       6.802       5.716       4.613       3.485       2.338       1.176      2.5797E-03
   4    9.998       8.945       7.886       6.821       5.750       4.659       3.519       2.357       1.185      2.5982E-03
   5    9.998       8.949       7.897       6.846       5.803       4.756       3.573       2.382       1.194      2.6193E-03
   6    9.998       8.952       7.903       6.865       5.865       4.989       3.635       2.401       1.200      2.6318E-03
   7    9.998       8.950       7.897       6.847       5.804       4.757       3.574       2.383       1.195      2.6200E-03
   8    9.998       8.946       7.887       6.823       5.752       4.662       3.521       2.358       1.185      2.5999E-03
   9    9.998       8.942       7.878       6.805       5.721       4.618       3.489       2.341       1.178      2.5833E-03
  10    9.998       8.940       7.873       6.796       5.707       4.601       3.475       2.332       1.174      2.5746E-03
1
              HEAD IN LAYER   4 AT END OF TIME STEP  54 IN STRESS PERIOD    2
  ---------------------------------------------------------------------------

            1           2           3           4           5           6           7           8           9          10
 ........................................................................................................................
   1    9.998       8.936       7.865       6.783       5.689       4.581       3.458       2.319       1.167      2.5620E-03
   2    9.998       8.937       7.868       6.789       5.697       4.590       3.466       2.325       1.170      2.5678E-03
   3    9.998       8.941       7.875       6.801       5.716       4.613       3.485       2.337       1.175      2.5801E-03
   4    9.998       8.945       7.885       6.821       5.750       4.659       3.519       2.356       1.184      2.5988E-03
   5    9.998       8.949       7.897       6.846       5.803       4.751       3.572       2.381       1.194      2.6200E-03
   6    9.998       8.951       7.903       6.864       5.859       4.925       3.630       2.400       1.199      2.6324E-03
   7    9.998       8.949       7.897       6.847       5.803       4.752       3.573       2.382       1.194      2.6207E-03
   8    9.998       8.945       7.887       6.823       5.752       4.661       3.521       2.358       1.185      2.6006E-03
   9    9.998       8.942       7.878       6.805       5.721       4.618       3.489       2.340       1.177      2.5839E-03
  10    9.998       8.940       7.873       6.796       5.706       4.600       3.475       2.331       1.173      2.5750E-03
1
              HEAD IN LAYER   5 AT END OF TIME STEP  54 IN STRESS PERIOD    2
  ---------------------------------------------------------------------------

            1           2           3           4           5           6           7           8           9          10
 ........................................................................................................................
   1    9.998       8.936       7.865       6.783       5.689       4.581       3.457       2.319       1.167      2.5611E-03
   2    9.998       8.937       7.868       6.788       5.697       4.590       3.466       2.324       1.169      2.5670E-03
   3    9.998       8.940       7.875       6.801       5.716       4.613       3.484       2.337       1.175      2.5793E-03
   4    9.998       8.944       7.885       6.821       5.750       4.659       3.518       2.356       1.184      2.5981E-03
   5    9.998       8.949       7.896       6.846       5.802       4.748       3.571       2.381       1.193      2.6194E-03
   6    9.998       8.951       7.903       6.864       5.856       4.896       3.626       2.399       1.199      2.6318E-03
   7    9.998       8.949       7.897       6.847       5.803       4.749       3.572       2.382       1.194      2.6201E-03
   8    9.998       8.945       7.886       6.823       5.752       4.661       3.520       2.358       1.184      2.5999E-03
   9    9.998       8.941       7.877       6.805       5.720       4.618       3.489       2.340       1.177      2.5831E-03
  10    9.998       8.939       7.873       6.796       5.706       4.600       3.474       2.331       1.173      2.5743E-03

 HEAD WILL BE SAVED ON UNIT   51 AT END OF TIME STEP   54, STRESS PERIOD    2

 DRAWDOWN WILL BE SAVED ON UNIT   52 AT END OF TIME STEP   54, STRESS PERIOD    2
1
  VOLUMETRIC BUDGET FOR ENTIRE MODEL AT END OF TIME STEP   54, STRESS PERIOD   2
  ------------------------------------------------------------------------------

     CUMULATIVE VOLUMES      L**3       RATES FOR THIS TIME STEP      L**3/T
     ------------------                 ------------------------

           IN:                                      IN:
           ---                                      ---
             STORAGE =           0.0000               STORAGE =           0.0000
       CONSTANT HEAD =           0.0000         CONSTANT HEAD =           0.0000
               WELLS =        5400.0000                 WELLS =         100.0000
     HEAD DEP BOUNDS =       63850.4141       HEAD DEP BOUNDS =        1153.2096

            TOTAL IN =       69250.4141              TOTAL IN =        1253.2096

          OUT:                                     OUT:
          ----                                     ----
             STORAGE =        4606.9067               STORAGE =          66.2246
       CONSTANT HEAD =           0.0000         CONSTANT HEAD =           0.0000
               WELLS =           0.0000                 WELLS =           0.0000
     HEAD DEP BOUNDS =       64642.7148       HEAD DEP BOUNDS =        1186.9520

           TOTAL OUT =       69249.6250             TOTAL OUT =        1253.1766

            IN - OUT =           0.7891              IN - OUT =       3.2959E-02

 PERCENT DISCREPANCY =           0.00     PERCENT DISCREPANCY =           0.00






         TIME SUMMARY AT END OF TIME STEP   54 IN STRESS PERIOD    2
                    SECONDS     MINUTES      HOURS       DAYS        YEARS
                    -----------------------------------------------------------
   TIME STEP LENGTH  86400.      1440.0      24.000      1.0000     2.73785E-03
 STRESS PERIOD TIME 4.66560E+06  77760.      1296.0      54.000     0.14784    
         TOTAL TIME 4.75200E+06  79200.      1320.0      55.000     0.15058    
1
 
 SOLVING FOR HEAD 

 OUTPUT CONTROL FOR STRESS PERIOD    2   TIME STEP   55
    SAVE HEAD FOR ALL LAYERS
    SAVE DRAWDOWN FOR ALL LAYERS
    SAVE BUDGET
    PRINT HEAD FOR ALL LAYERS
    PRINT BUDGET
 UBDSV1 SAVING "         STORAGE" ON UNIT  53 AT TIME STEP 55, STRESS PERIOD   2
 UBDSV2 SAVING "   CONSTANT HEAD" ON UNIT  53 AT TIME STEP 55, STRESS PERIOD   2
 UBDSV1 SAVING "FLOW RIGHT FACE " ON UNIT  53 AT TIME STEP 55, STRESS PERIOD   2
 UBDSV1 SAVING "FLOW FRONT FACE " ON UNIT  53 AT TIME STEP 55, STRESS PERIOD   2
 UBDSV1 SAVING "FLOW LOWER FACE " ON UNIT  53 AT TIME STEP 55, STRESS PERIOD   2

 SAVING SATURATED THICKNESS AND FLOW TERMS ON UNIT   54 FOR MT3DMS
 BY THE LINK-MT3DMS PACKAGE V7 AT TIME STEP   55, STRESS PERIOD    2

1
              HEAD IN LAYER   1 AT END OF TIME STEP  55 IN STRESS PERIOD    2
  ---------------------------------------------------------------------------

            1           2           3           4           5           6           7           8           9          10
 ........................................................................................................................
   1    9.998       8.940       7.869       6.786       5.692       4.584       3.461       2.323       1.171      1.5271E-03
   2    9.998       8.941       7.872       6.792       5.700       4.593       3.469       2.329       1.174      1.5306E-03
   3    9.998       8.944       7.878       6.804       5.718       4.615       3.487       2.340       1.179      1.5379E-03
   4    9.998       8.948       7.888       6.823       5.751       4.661       3.521       2.359       1.188      1.5492E-03
   5    9.998       8.952       7.899       6.848       5.805       4.765       3.576       2.384       1.197      1.5622E-03
   6    9.998       8.954       7.905       6.866       5.872       5.060       3.644       2.404       1.203      1.5698E-03
   7    9.998       8.952       7.899       6.848       5.806       4.765       3.576       2.385       1.198      1.5626E-03
   8    9.998       8.948       7.889       6.825       5.753       4.664       3.523       2.361       1.188      1.5502E-03
   9    9.998       8.945       7.881       6.807       5.722       4.620       3.491       2.343       1.181      1.5400E-03
  10    9.998       8.943       7.876       6.798       5.709       4.603       3.477       2.335       1.177      1.5347E-03
1
              HEAD IN LAYER   2 AT END OF TIME STEP  55 IN STRESS PERIOD    2
  ---------------------------------------------------------------------------

            1           2           3           4           5           6           7           8           9          10
 ........................................................................................................................
   1    9.998       8.938       7.867       6.785       5.691       4.583       3.460       2.322       1.170      2.5122E-03
   2    9.998       8.939       7.870       6.791       5.699       4.592       3.468       2.327       1.172      2.5178E-03
   3    9.998       8.942       7.877       6.803       5.718       4.615       3.486       2.339       1.178      2.5297E-03
   4    9.998       8.947       7.887       6.823       5.751       4.661       3.520       2.358       1.186      2.5478E-03
   5    9.998       8.951       7.898       6.848       5.805       4.763       3.575       2.384       1.196      2.5685E-03
   6    9.998       8.953       7.904       6.866       5.871       5.100       3.643       2.403       1.202      2.5808E-03
   7    9.998       8.951       7.899       6.848       5.806       4.764       3.576       2.384       1.196      2.5692E-03
   8    9.998       8.947       7.888       6.824       5.753       4.663       3.522       2.360       1.187      2.5495E-03
   9    9.998       8.944       7.880       6.806       5.722       4.620       3.491       2.342       1.179      2.5332E-03
  10    9.998       8.942       7.875       6.798       5.708       4.602       3.477       2.333       1.176      2.5246E-03
1
              HEAD IN LAYER   3 AT END OF TIME STEP  55 IN STRESS PERIOD    2
  ---------------------------------------------------------------------------

            1           2           3           4           5           6           7           8           9          10
 ........................................................................................................................
   1    9.998       8.937       7.866       6.784       5.690       4.582       3.459       2.321       1.168      2.5623E-03
   2    9.998       8.938       7.869       6.790       5.698       4.592       3.467       2.326       1.171      2.5681E-03
   3    9.998       8.941       7.876       6.802       5.717       4.614       3.486       2.338       1.177      2.5804E-03
   4    9.998       8.946       7.887       6.822       5.751       4.661       3.520       2.358       1.185      2.5991E-03
   5    9.998       8.950       7.898       6.847       5.805       4.758       3.574       2.383       1.195      2.6204E-03
   6    9.998       8.952       7.904       6.866       5.866       4.990       3.637       2.402       1.201      2.6329E-03
   7    9.998       8.950       7.898       6.848       5.805       4.759       3.575       2.384       1.195      2.6211E-03
   8    9.998       8.946       7.888       6.824       5.753       4.663       3.522       2.359       1.186      2.6009E-03
   9    9.998       8.943       7.879       6.806       5.722       4.619       3.490       2.341       1.178      2.5842E-03
  10    9.998       8.941       7.874       6.797       5.708       4.602       3.476       2.333       1.174      2.5754E-03
1
              HEAD IN LAYER   4 AT END OF TIME STEP  55 IN STRESS PERIOD    2
  ---------------------------------------------------------------------------

            1           2           3           4           5           6           7           8           9          10
 ........................................................................................................................
   1    9.998       8.936       7.865       6.783       5.690       4.582       3.458       2.320       1.167      2.5625E-03
   2    9.998       8.938       7.869       6.789       5.698       4.591       3.466       2.325       1.170      2.5684E-03
   3    9.998       8.941       7.876       6.802       5.717       4.614       3.485       2.337       1.176      2.5809E-03
   4    9.998       8.945       7.886       6.822       5.751       4.660       3.520       2.357       1.184      2.5997E-03
   5    9.998       8.949       7.897       6.847       5.804       4.752       3.573       2.382       1.194      2.6211E-03
   6    9.998       8.951       7.904       6.865       5.861       4.927       3.631       2.401       1.200      2.6336E-03
   7    9.998       8.950       7.898       6.848       5.805       4.753       3.574       2.383       1.194      2.6218E-03
   8    9.998       8.946       7.887       6.824       5.753       4.662       3.522       2.359       1.185      2.6015E-03
   9    9.998       8.942       7.878       6.806       5.722       4.619       3.490       2.341       1.177      2.5847E-03
  10    9.998       8.940       7.873       6.797       5.707       4.601       3.476       2.332       1.173      2.5758E-03
1
              HEAD IN LAYER   5 AT END OF TIME STEP  55 IN STRESS PERIOD    2
  ---------------------------------------------------------------------------

            1           2           3           4           5           6           7           8           9          10
 ........................................................................................................................
   1    9.998       8.936       7.865       6.783       5.689       4.581       3.458       2.319       1.167      2.5616E-03
   2    9.998       8.937       7.868       6.789       5.698       4.591       3.466       2.325       1.170      2.5675E-03
   3    9.998       8.940       7.875       6.802       5.717       4.614       3.485       2.337       1.175      2.5801E-03
   4    9.998       8.945       7.886       6.822       5.751       4.660       3.519       2.357       1.184      2.5990E-03
   5    9.998       8.949       7.897       6.847       5.803       4.749       3.572       2.382       1.194      2.6204E-03
   6    9.998       8.951       7.903       6.865       5.858       4.897       3.628       2.400       1.199      2.6329E-03
   7    9.998       8.949       7.898       6.848       5.804       4.750       3.573       2.383       1.194      2.6212E-03
   8    9.998       8.945       7.887       6.824       5.753       4.662       3.522       2.358       1.185      2.6008E-03
   9    9.998       8.942       7.878       6.806       5.721       4.619       3.490       2.341       1.177      2.5840E-03
  10    9.998       8.940       7.873       6.796       5.707       4.601       3.475       2.332       1.173      2.5750E-03

 HEAD WILL BE SAVED ON UNIT   51 AT END OF TIME STEP   55, STRESS PERIOD    2

 DRAWDOWN WILL BE SAVED ON UNIT   52 AT END OF TIME STEP   55, STRESS PERIOD    2
1
  VOLUMETRIC BUDGET FOR ENTIRE MODEL AT END OF TIME STEP   55, STRESS PERIOD   2
  ------------------------------------------------------------------------------

     CUMULATIVE VOLUMES      L**3       RATES FOR THIS TIME STEP      L**3/T
     ------------------                 ------------------------

           IN:                                      IN:
           ---                                      ---
             STORAGE =           0.0000               STORAGE =           0.0000
       CONSTANT HEAD =           0.0000         CONSTANT HEAD =           0.0000
               WELLS =        5500.0000                 WELLS =         100.0000
     HEAD DEP BOUNDS =       65003.3008       HEAD DEP BOUNDS =        1152.8875

            TOTAL IN =       70503.2969              TOTAL IN =        1252.8875

          OUT:                                     OUT:
          ----                                     ----
             STORAGE =        4672.4194               STORAGE =          65.5126
       CONSTANT HEAD =           0.0000         CONSTANT HEAD =           0.0000
               WELLS =           0.0000                 WELLS =           0.0000
     HEAD DEP BOUNDS =       65830.0625       HEAD DEP BOUNDS =        1187.3494

           TOTAL OUT =       70502.4844             TOTAL OUT =        1252.8619

            IN - OUT =           0.8125              IN - OUT =       2.5513E-02

 PERCENT DISCREPANCY =           0.00     PERCENT DISCREPANCY =           0.00






         TIME SUMMARY AT END OF TIME STEP   55 IN STRESS PERIOD    2
                    SECONDS     MINUTES      HOURS       DAYS        YEARS
                    -----------------------------------------------------------
   TIME STEP LENGTH  86400.      1440.0      24.000      1.0000     2.73785E-03
 STRESS PERIOD TIME 4.75200E+06  79200.      1320.0      55.000     0.15058    
         TOTAL TIME 4.83840E+06  80640.      1344.0      56.000     0.15332    
1
 
 SOLVING FOR HEAD 

 OUTPUT CONTROL FOR STRESS PERIOD    2   TIME STEP   56
    SAVE HEAD FOR ALL LAYERS
    SAVE DRAWDOWN FOR ALL LAYERS
    SAVE BUDGET
    PRINT HEAD FOR ALL LAYERS
    PRINT BUDGET
 UBDSV1 SAVING "         STORAGE" ON UNIT  53 AT TIME STEP 56, STRESS PERIOD   2
 UBDSV2 SAVING "   CONSTANT HEAD" ON UNIT  53 AT TIME STEP 56, STRESS PERIOD   2
 UBDSV1 SAVING "FLOW RIGHT FACE " ON UNIT  53 AT TIME STEP 56, STRESS PERIOD   2
 UBDSV1 SAVING "FLOW FRONT FACE " ON UNIT  53 AT TIME STEP 56, STRESS PERIOD   2
 UBDSV1 SAVING "FLOW LOWER FACE " ON UNIT  53 AT TIME STEP 56, STRESS PERIOD   2

 SAVING SATURATED THICKNESS AND FLOW TERMS ON UNIT   54 FOR MT3DMS
 BY THE LINK-MT3DMS PACKAGE V7 AT TIME STEP   56, STRESS PERIOD    2

1
              HEAD IN LAYER   1 AT END OF TIME STEP  56 IN STRESS PERIOD    2
  ---------------------------------------------------------------------------

            1           2           3           4           5           6           7           8           9          10
 ........................................................................................................................
   1    9.998       8.940       7.869       6.787       5.693       4.585       3.462       2.324       1.172      1.5274E-03
   2    9.998       8.941       7.872       6.792       5.701       4.594       3.470       2.329       1.174      1.5309E-03
   3    9.998       8.944       7.879       6.804       5.719       4.616       3.488       2.341       1.180      1.5384E-03
   4    9.998       8.948       7.889       6.824       5.753       4.663       3.522       2.360       1.188      1.5498E-03
   5    9.998       8.952       7.900       6.849       5.806       4.766       3.577       2.385       1.198      1.5629E-03
   6    9.998       8.954       7.906       6.867       5.873       5.061       3.646       2.405       1.203      1.5706E-03
   7    9.998       8.952       7.900       6.849       5.807       4.767       3.578       2.386       1.198      1.5634E-03
   8    9.998       8.949       7.890       6.826       5.755       4.665       3.524       2.362       1.189      1.5509E-03
   9    9.998       8.945       7.881       6.808       5.723       4.621       3.492       2.344       1.181      1.5406E-03
  10    9.998       8.943       7.876       6.799       5.709       4.604       3.478       2.335       1.177      1.5352E-03
1
              HEAD IN LAYER   2 AT END OF TIME STEP  56 IN STRESS PERIOD    2
  ---------------------------------------------------------------------------

            1           2           3           4           5           6           7           8           9          10
 ........................................................................................................................
   1    9.998       8.938       7.867       6.786       5.692       4.584       3.461       2.322       1.170      2.5127E-03
   2    9.998       8.940       7.871       6.791       5.700       4.593       3.469       2.328       1.173      2.5184E-03
   3    9.998       8.943       7.878       6.804       5.718       4.616       3.487       2.340       1.178      2.5304E-03
   4    9.998       8.947       7.888       6.823       5.752       4.662       3.521       2.359       1.187      2.5487E-03
   5    9.998       8.951       7.899       6.849       5.806       4.765       3.576       2.385       1.196      2.5696E-03
   6    9.998       8.953       7.905       6.867       5.872       5.101       3.644       2.404       1.202      2.5819E-03
   7    9.998       8.951       7.899       6.849       5.807       4.766       3.577       2.385       1.197      2.5703E-03
   8    9.998       8.947       7.889       6.825       5.754       4.665       3.523       2.361       1.187      2.5504E-03
   9    9.998       8.944       7.880       6.807       5.723       4.621       3.492       2.343       1.180      2.5340E-03
  10    9.998       8.942       7.875       6.798       5.709       4.603       3.477       2.334       1.176      2.5254E-03
1
              HEAD IN LAYER   3 AT END OF TIME STEP  56 IN STRESS PERIOD    2
  ---------------------------------------------------------------------------

            1           2           3           4           5           6           7           8           9          10
 ........................................................................................................................
   1    9.998       8.937       7.866       6.785       5.691       4.583       3.459       2.321       1.168      2.5628E-03
   2    9.998       8.939       7.870       6.790       5.699       4.592       3.468       2.327       1.171      2.5687E-03
   3    9.998       8.942       7.877       6.803       5.718       4.615       3.487       2.339       1.177      2.5812E-03
   4    9.998       8.946       7.887       6.823       5.752       4.662       3.521       2.358       1.185      2.6000E-03
   5    9.998       8.950       7.898       6.848       5.806       4.759       3.575       2.384       1.195      2.6215E-03
   6    9.998       8.952       7.905       6.867       5.867       4.992       3.638       2.403       1.201      2.6340E-03
   7    9.998       8.950       7.899       6.849       5.807       4.760       3.576       2.384       1.196      2.6222E-03
   8    9.998       8.947       7.888       6.825       5.754       4.664       3.523       2.360       1.186      2.6019E-03
   9    9.998       8.943       7.879       6.807       5.723       4.620       3.491       2.342       1.179      2.5850E-03
  10    9.998       8.941       7.874       6.798       5.708       4.603       3.477       2.333       1.175      2.5761E-03
1
              HEAD IN LAYER   4 AT END OF TIME STEP  56 IN STRESS PERIOD    2
  ---------------------------------------------------------------------------

            1           2           3           4           5           6           7           8           9          10
 ........................................................................................................................
   1    9.998       8.936       7.866       6.784       5.690       4.582       3.459       2.320       1.168      2.5629E-03
   2    9.998       8.938       7.869       6.790       5.699       4.592       3.467       2.326       1.170      2.5690E-03
   3    9.998       8.941       7.876       6.803       5.718       4.615       3.486       2.338       1.176      2.5816E-03
   4    9.998       8.945       7.887       6.823       5.752       4.661       3.521       2.358       1.185      2.6006E-03
   5    9.998       8.950       7.898       6.848       5.805       4.754       3.574       2.383       1.195      2.6221E-03
   6    9.998       8.952       7.904       6.866       5.862       4.928       3.632       2.402       1.200      2.6347E-03
   7    9.998       8.950       7.899       6.849       5.806       4.755       3.575       2.384       1.195      2.6229E-03
   8    9.998       8.946       7.888       6.825       5.754       4.664       3.523       2.360       1.186      2.6025E-03
   9    9.998       8.942       7.879       6.806       5.723       4.620       3.491       2.342       1.178      2.5855E-03
  10    9.998       8.940       7.874       6.797       5.708       4.602       3.476       2.333       1.174      2.5766E-03
1
              HEAD IN LAYER   5 AT END OF TIME STEP  56 IN STRESS PERIOD    2
  ---------------------------------------------------------------------------

            1           2           3           4           5           6           7           8           9          10
 ........................................................................................................................
   1    9.998       8.936       7.865       6.784       5.690       4.582       3.458       2.320       1.167      2.5620E-03
   2    9.998       8.938       7.869       6.790       5.698       4.592       3.467       2.325       1.170      2.5681E-03
   3    9.998       8.941       7.876       6.802       5.717       4.615       3.486       2.338       1.176      2.5808E-03
   4    9.998       8.945       7.886       6.823       5.752       4.661       3.520       2.358       1.184      2.5999E-03
   5    9.998       8.949       7.898       6.848       5.805       4.750       3.574       2.383       1.194      2.6214E-03
   6    9.998       8.951       7.904       6.866       5.859       4.899       3.629       2.401       1.200      2.6340E-03
   7    9.998       8.950       7.898       6.849       5.805       4.751       3.575       2.384       1.195      2.6222E-03
   8    9.998       8.946       7.888       6.825       5.754       4.663       3.523       2.359       1.185      2.6018E-03
   9    9.998       8.942       7.879       6.806       5.722       4.620       3.491       2.341       1.177      2.5848E-03
  10    9.998       8.940       7.874       6.797       5.708       4.602       3.476       2.332       1.173      2.5758E-03

 HEAD WILL BE SAVED ON UNIT   51 AT END OF TIME STEP   56, STRESS PERIOD    2

 DRAWDOWN WILL BE SAVED ON UNIT   52 AT END OF TIME STEP   56, STRESS PERIOD    2
1
  VOLUMETRIC BUDGET FOR ENTIRE MODEL AT END OF TIME STEP   56, STRESS PERIOD   2
  ------------------------------------------------------------------------------

     CUMULATIVE VOLUMES      L**3       RATES FOR THIS TIME STEP      L**3/T
     ------------------                 ------------------------

           IN:                                      IN:
           ---                                      ---
             STORAGE =           0.0000               STORAGE =           0.0000
       CONSTANT HEAD =           0.0000         CONSTANT HEAD =           0.0000
               WELLS =        5600.0000                 WELLS =         100.0000
     HEAD DEP BOUNDS =       66155.8828       HEAD DEP BOUNDS =        1152.5811

            TOTAL IN =       71755.8828              TOTAL IN =        1252.5811

          OUT:                                     OUT:
          ----                                     ----
             STORAGE =        4737.2261               STORAGE =          64.8066
       CONSTANT HEAD =           0.0000         CONSTANT HEAD =           0.0000
               WELLS =           0.0000                 WELLS =           0.0000
     HEAD DEP BOUNDS =       67017.8047       HEAD DEP BOUNDS =        1187.7433

           TOTAL OUT =       71755.0312             TOTAL OUT =        1252.5499

            IN - OUT =           0.8516              IN - OUT =       3.1128E-02

 PERCENT DISCREPANCY =           0.00     PERCENT DISCREPANCY =           0.00






         TIME SUMMARY AT END OF TIME STEP   56 IN STRESS PERIOD    2
                    SECONDS     MINUTES      HOURS       DAYS        YEARS
                    -----------------------------------------------------------
   TIME STEP LENGTH  86400.      1440.0      24.000      1.0000     2.73785E-03
 STRESS PERIOD TIME 4.83840E+06  80640.      1344.0      56.000     0.15332    
         TOTAL TIME 4.92480E+06  82080.      1368.0      57.000     0.15606    
1
 
 SOLVING FOR HEAD 

 OUTPUT CONTROL FOR STRESS PERIOD    2   TIME STEP   57
    SAVE HEAD FOR ALL LAYERS
    SAVE DRAWDOWN FOR ALL LAYERS
    SAVE BUDGET
    PRINT HEAD FOR ALL LAYERS
    PRINT BUDGET
 UBDSV1 SAVING "         STORAGE" ON UNIT  53 AT TIME STEP 57, STRESS PERIOD   2
 UBDSV2 SAVING "   CONSTANT HEAD" ON UNIT  53 AT TIME STEP 57, STRESS PERIOD   2
 UBDSV1 SAVING "FLOW RIGHT FACE " ON UNIT  53 AT TIME STEP 57, STRESS PERIOD   2
 UBDSV1 SAVING "FLOW FRONT FACE " ON UNIT  53 AT TIME STEP 57, STRESS PERIOD   2
 UBDSV1 SAVING "FLOW LOWER FACE " ON UNIT  53 AT TIME STEP 57, STRESS PERIOD   2

 SAVING SATURATED THICKNESS AND FLOW TERMS ON UNIT   54 FOR MT3DMS
 BY THE LINK-MT3DMS PACKAGE V7 AT TIME STEP   57, STRESS PERIOD    2

1
              HEAD IN LAYER   1 AT END OF TIME STEP  57 IN STRESS PERIOD    2
  ---------------------------------------------------------------------------

            1           2           3           4           5           6           7           8           9          10
 ........................................................................................................................
   1    9.998       8.940       7.869       6.787       5.693       4.585       3.462       2.324       1.172      1.5277E-03
   2    9.998       8.941       7.872       6.793       5.701       4.595       3.470       2.330       1.174      1.5313E-03
   3    9.998       8.944       7.879       6.805       5.720       4.617       3.489       2.341       1.180      1.5388E-03
   4    9.998       8.948       7.889       6.825       5.754       4.664       3.523       2.361       1.189      1.5504E-03
   5    9.998       8.953       7.900       6.850       5.808       4.767       3.578       2.386       1.198      1.5636E-03
   6    9.998       8.955       7.907       6.868       5.874       5.063       3.647       2.406       1.204      1.5714E-03
   7    9.998       8.953       7.901       6.851       5.809       4.768       3.579       2.387       1.199      1.5640E-03
   8    9.998       8.949       7.890       6.827       5.756       4.666       3.525       2.362       1.189      1.5514E-03
   9    9.998       8.946       7.882       6.809       5.724       4.622       3.493       2.345       1.182      1.5411E-03
  10    9.998       8.944       7.877       6.800       5.710       4.604       3.479       2.336       1.178      1.5357E-03
1
              HEAD IN LAYER   2 AT END OF TIME STEP  57 IN STRESS PERIOD    2
  ---------------------------------------------------------------------------

            1           2           3           4           5           6           7           8           9          10
 ........................................................................................................................
   1    9.998       8.938       7.868       6.786       5.692       4.584       3.461       2.323       1.170      2.5131E-03
   2    9.998       8.940       7.871       6.792       5.700       4.594       3.469       2.328       1.173      2.5189E-03
   3    9.998       8.943       7.878       6.804       5.719       4.617       3.488       2.340       1.179      2.5311E-03
   4    9.998       8.947       7.888       6.824       5.753       4.663       3.522       2.360       1.187      2.5496E-03
   5    9.998       8.951       7.900       6.850       5.808       4.766       3.578       2.386       1.197      2.5707E-03
   6    9.998       8.953       7.906       6.868       5.874       5.102       3.645       2.405       1.203      2.5830E-03
   7    9.998       8.952       7.900       6.850       5.809       4.767       3.578       2.386       1.197      2.5714E-03
   8    9.998       8.948       7.890       6.826       5.756       4.666       3.525       2.362       1.188      2.5514E-03
   9    9.998       8.944       7.881       6.808       5.724       4.622       3.493       2.344       1.180      2.5349E-03
  10    9.998       8.942       7.876       6.799       5.710       4.604       3.478       2.335       1.176      2.5261E-03
1
              HEAD IN LAYER   3 AT END OF TIME STEP  57 IN STRESS PERIOD    2
  ---------------------------------------------------------------------------

            1           2           3           4           5           6           7           8           9          10
 ........................................................................................................................
   1    9.998       8.937       7.867       6.785       5.691       4.583       3.460       2.321       1.169      2.5632E-03
   2    9.998       8.939       7.870       6.791       5.700       4.593       3.468       2.327       1.171      2.5693E-03
   3    9.998       8.942       7.877       6.804       5.719       4.616       3.487       2.339       1.177      2.5819E-03
   4    9.998       8.946       7.888       6.824       5.753       4.663       3.522       2.359       1.186      2.6009E-03
   5    9.998       8.950       7.899       6.849       5.807       4.760       3.576       2.385       1.196      2.6225E-03
   6    9.998       8.953       7.905       6.868       5.869       4.993       3.639       2.404       1.202      2.6352E-03
   7    9.998       8.951       7.900       6.850       5.808       4.761       3.577       2.385       1.196      2.6233E-03
   8    9.998       8.947       7.889       6.826       5.755       4.665       3.524       2.361       1.187      2.6028E-03
   9    9.998       8.943       7.880       6.808       5.724       4.621       3.492       2.343       1.179      2.5859E-03
  10    9.998       8.941       7.875       6.798       5.709       4.603       3.478       2.334       1.175      2.5769E-03
1
              HEAD IN LAYER   4 AT END OF TIME STEP  57 IN STRESS PERIOD    2
  ---------------------------------------------------------------------------

            1           2           3           4           5           6           7           8           9          10
 ........................................................................................................................
   1    9.998       8.936       7.866       6.784       5.691       4.583       3.459       2.321       1.168      2.5634E-03
   2    9.998       8.938       7.869       6.790       5.699       4.593       3.468       2.326       1.171      2.5695E-03
   3    9.998       8.941       7.877       6.803       5.718       4.616       3.487       2.339       1.176      2.5823E-03
   4    9.998       8.946       7.887       6.824       5.753       4.662       3.522       2.359       1.185      2.6015E-03
   5    9.998       8.950       7.899       6.849       5.806       4.755       3.575       2.384       1.195      2.6232E-03
   6    9.998       8.952       7.905       6.867       5.863       4.929       3.633       2.403       1.201      2.6358E-03
   7    9.998       8.950       7.899       6.850       5.807       4.756       3.576       2.385       1.195      2.6239E-03
   8    9.998       8.946       7.889       6.826       5.755       4.665       3.524       2.360       1.186      2.6035E-03
   9    9.998       8.943       7.879       6.807       5.723       4.621       3.492       2.342       1.178      2.5864E-03
  10    9.998       8.940       7.874       6.798       5.709       4.603       3.477       2.333       1.174      2.5773E-03
1
              HEAD IN LAYER   5 AT END OF TIME STEP  57 IN STRESS PERIOD    2
  ---------------------------------------------------------------------------

            1           2           3           4           5           6           7           8           9          10
 ........................................................................................................................
   1    9.998       8.936       7.866       6.784       5.690       4.582       3.459       2.320       1.167      2.5625E-03
   2    9.998       8.938       7.869       6.790       5.699       4.592       3.467       2.326       1.170      2.5687E-03
   3    9.998       8.941       7.876       6.803       5.718       4.616       3.487       2.338       1.176      2.5815E-03
   4    9.998       8.945       7.887       6.823       5.753       4.662       3.521       2.358       1.185      2.6007E-03
   5    9.998       8.950       7.898       6.849       5.806       4.752       3.575       2.384       1.195      2.6225E-03
   6    9.998       8.952       7.905       6.867       5.860       4.900       3.630       2.402       1.200      2.6350E-03
   7    9.998       8.950       7.899       6.850       5.807       4.753       3.576       2.385       1.195      2.6233E-03
   8    9.998       8.946       7.888       6.826       5.755       4.664       3.524       2.360       1.186      2.6027E-03
   9    9.998       8.942       7.879       6.807       5.723       4.621       3.492       2.342       1.178      2.5856E-03
  10    9.998       8.940       7.874       6.798       5.709       4.603       3.477       2.333       1.174      2.5765E-03

 HEAD WILL BE SAVED ON UNIT   51 AT END OF TIME STEP   57, STRESS PERIOD    2

 DRAWDOWN WILL BE SAVED ON UNIT   52 AT END OF TIME STEP   57, STRESS PERIOD    2
1
  VOLUMETRIC BUDGET FOR ENTIRE MODEL AT END OF TIME STEP   57, STRESS PERIOD   2
  ------------------------------------------------------------------------------

     CUMULATIVE VOLUMES      L**3       RATES FOR THIS TIME STEP      L**3/T
     ------------------                 ------------------------

           IN:                                      IN:
           ---                                      ---
             STORAGE =           0.0000               STORAGE =           0.0000
       CONSTANT HEAD =           0.0000         CONSTANT HEAD =           0.0000
               WELLS =        5700.0000                 WELLS =         100.0000
     HEAD DEP BOUNDS =       67308.1484       HEAD DEP BOUNDS =        1152.2618

            TOTAL IN =       73008.1484              TOTAL IN =        1252.2618

          OUT:                                     OUT:
          ----                                     ----
             STORAGE =        4801.3369               STORAGE =          64.1108
       CONSTANT HEAD =           0.0000         CONSTANT HEAD =           0.0000
               WELLS =           0.0000                 WELLS =           0.0000
     HEAD DEP BOUNDS =       68205.9375       HEAD DEP BOUNDS =        1188.1321

           TOTAL OUT =       73007.2734             TOTAL OUT =        1252.2429

            IN - OUT =           0.8750              IN - OUT =       1.8921E-02

 PERCENT DISCREPANCY =           0.00     PERCENT DISCREPANCY =           0.00






         TIME SUMMARY AT END OF TIME STEP   57 IN STRESS PERIOD    2
                    SECONDS     MINUTES      HOURS       DAYS        YEARS
                    -----------------------------------------------------------
   TIME STEP LENGTH  86400.      1440.0      24.000      1.0000     2.73785E-03
 STRESS PERIOD TIME 4.92480E+06  82080.      1368.0      57.000     0.15606    
         TOTAL TIME 5.01120E+06  83520.      1392.0      58.000     0.15880    
1
 
 SOLVING FOR HEAD 

 OUTPUT CONTROL FOR STRESS PERIOD    2   TIME STEP   58
    SAVE HEAD FOR ALL LAYERS
    SAVE DRAWDOWN FOR ALL LAYERS
    SAVE BUDGET
    PRINT HEAD FOR ALL LAYERS
    PRINT BUDGET
 UBDSV1 SAVING "         STORAGE" ON UNIT  53 AT TIME STEP 58, STRESS PERIOD   2
 UBDSV2 SAVING "   CONSTANT HEAD" ON UNIT  53 AT TIME STEP 58, STRESS PERIOD   2
 UBDSV1 SAVING "FLOW RIGHT FACE " ON UNIT  53 AT TIME STEP 58, STRESS PERIOD   2
 UBDSV1 SAVING "FLOW FRONT FACE " ON UNIT  53 AT TIME STEP 58, STRESS PERIOD   2
 UBDSV1 SAVING "FLOW LOWER FACE " ON UNIT  53 AT TIME STEP 58, STRESS PERIOD   2

 SAVING SATURATED THICKNESS AND FLOW TERMS ON UNIT   54 FOR MT3DMS
 BY THE LINK-MT3DMS PACKAGE V7 AT TIME STEP   58, STRESS PERIOD    2

1
              HEAD IN LAYER   1 AT END OF TIME STEP  58 IN STRESS PERIOD    2
  ---------------------------------------------------------------------------

            1           2           3           4           5           6           7           8           9          10
 ........................................................................................................................
   1    9.998       8.940       7.869       6.788       5.694       4.586       3.463       2.325       1.172      1.5280E-03
   2    9.998       8.942       7.873       6.794       5.702       4.595       3.471       2.330       1.175      1.5317E-03
   3    9.998       8.945       7.880       6.806       5.721       4.618       3.490       2.342       1.180      1.5393E-03
   4    9.998       8.949       7.890       6.826       5.755       4.665       3.524       2.362       1.189      1.5510E-03
   5    9.998       8.953       7.901       6.851       5.809       4.769       3.579       2.387       1.199      1.5643E-03
   6    9.998       8.955       7.907       6.870       5.876       5.064       3.648       2.407       1.205      1.5721E-03
   7    9.998       8.953       7.902       6.852       5.810       4.770       3.580       2.388       1.199      1.5647E-03
   8    9.998       8.949       7.891       6.827       5.757       4.667       3.526       2.363       1.190      1.5521E-03
   9    9.998       8.946       7.882       6.810       5.725       4.623       3.494       2.345       1.182      1.5416E-03
  10    9.998       8.944       7.877       6.801       5.711       4.605       3.480       2.337       1.178      1.5361E-03
1
              HEAD IN LAYER   2 AT END OF TIME STEP  58 IN STRESS PERIOD    2
  ---------------------------------------------------------------------------

            1           2           3           4           5           6           7           8           9          10
 ........................................................................................................................
   1    9.998       8.939       7.868       6.787       5.693       4.585       3.462       2.323       1.170      2.5136E-03
   2    9.998       8.940       7.872       6.792       5.701       4.595       3.470       2.329       1.173      2.5195E-03
   3    9.998       8.943       7.879       6.805       5.720       4.618       3.489       2.341       1.179      2.5318E-03
   4    9.998       8.947       7.889       6.825       5.754       4.665       3.523       2.361       1.188      2.5505E-03
   5    9.998       8.952       7.900       6.851       5.809       4.767       3.579       2.386       1.197      2.5717E-03
   6    9.998       8.954       7.907       6.869       5.875       5.104       3.647       2.406       1.203      2.5842E-03
   7    9.998       8.952       7.901       6.851       5.810       4.768       3.580       2.387       1.198      2.5724E-03
   8    9.998       8.948       7.890       6.827       5.757       4.667       3.526       2.362       1.188      2.5523E-03
   9    9.998       8.944       7.881       6.809       5.725       4.623       3.494       2.344       1.181      2.5357E-03
  10    9.998       8.942       7.876       6.800       5.711       4.605       3.479       2.335       1.177      2.5269E-03
1
              HEAD IN LAYER   3 AT END OF TIME STEP  58 IN STRESS PERIOD    2
  ---------------------------------------------------------------------------

            1           2           3           4           5           6           7           8           9          10
 ........................................................................................................................
   1    9.998       8.937       7.867       6.786       5.692       4.584       3.461       2.322       1.169      2.5637E-03
   2    9.998       8.939       7.871       6.792       5.700       4.594       3.469       2.328       1.172      2.5698E-03
   3    9.998       8.942       7.878       6.804       5.720       4.617       3.488       2.340       1.178      2.5826E-03
   4    9.998       8.946       7.888       6.825       5.754       4.664       3.523       2.360       1.186      2.6018E-03
   5    9.998       8.951       7.900       6.850       5.808       4.762       3.578       2.386       1.196      2.6235E-03
   6    9.998       8.953       7.906       6.869       5.870       4.994       3.640       2.404       1.202      2.6362E-03
   7    9.998       8.951       7.900       6.851       5.809       4.763       3.579       2.386       1.197      2.6243E-03
   8    9.998       8.947       7.890       6.827       5.757       4.666       3.525       2.362       1.187      2.6038E-03
   9    9.998       8.943       7.880       6.808       5.725       4.622       3.493       2.344       1.179      2.5867E-03
  10    9.998       8.941       7.875       6.799       5.710       4.604       3.478       2.334       1.175      2.5776E-03
1
              HEAD IN LAYER   4 AT END OF TIME STEP  58 IN STRESS PERIOD    2
  ---------------------------------------------------------------------------

            1           2           3           4           5           6           7           8           9          10
 ........................................................................................................................
   1    9.998       8.937       7.866       6.785       5.691       4.583       3.460       2.321       1.168      2.5639E-03
   2    9.998       8.938       7.870       6.791       5.700       4.593       3.468       2.327       1.171      2.5701E-03
   3    9.998       8.941       7.877       6.804       5.719       4.617       3.488       2.339       1.177      2.5830E-03
   4    9.998       8.946       7.888       6.824       5.754       4.663       3.522       2.359       1.186      2.6023E-03
   5    9.998       8.950       7.899       6.850       5.807       4.756       3.577       2.385       1.195      2.6242E-03
   6    9.998       8.952       7.906       6.869       5.865       4.931       3.635       2.404       1.201      2.6368E-03
   7    9.998       8.951       7.900       6.851       5.808       4.757       3.577       2.386       1.196      2.6250E-03
   8    9.998       8.947       7.889       6.827       5.756       4.666       3.525       2.361       1.186      2.6044E-03
   9    9.998       8.943       7.880       6.808       5.724       4.622       3.493       2.343       1.179      2.5872E-03
  10    9.998       8.941       7.875       6.799       5.710       4.604       3.478       2.334       1.174      2.5781E-03
1
              HEAD IN LAYER   5 AT END OF TIME STEP  58 IN STRESS PERIOD    2
  ---------------------------------------------------------------------------

            1           2           3           4           5           6           7           8           9          10
 ........................................................................................................................
   1    9.998       8.936       7.866       6.785       5.691       4.583       3.459       2.321       1.168      2.5630E-03
   2    9.998       8.938       7.870       6.791       5.700       4.593       3.468       2.326       1.170      2.5692E-03
   3    9.998       8.941       7.877       6.804       5.719       4.616       3.487       2.339       1.176      2.5822E-03
   4    9.998       8.946       7.888       6.824       5.754       4.663       3.522       2.359       1.185      2.6016E-03
   5    9.998       8.950       7.899       6.850       5.807       4.753       3.576       2.385       1.195      2.6235E-03
   6    9.998       8.952       7.906       6.868       5.862       4.901       3.631       2.403       1.201      2.6361E-03
   7    9.998       8.950       7.900       6.851       5.808       4.754       3.577       2.385       1.195      2.6243E-03
   8    9.998       8.946       7.889       6.826       5.756       4.666       3.525       2.361       1.186      2.6037E-03
   9    9.998       8.943       7.880       6.808       5.724       4.622       3.493       2.343       1.178      2.5864E-03
  10    9.998       8.940       7.875       6.799       5.710       4.604       3.478       2.333       1.174      2.5773E-03

 HEAD WILL BE SAVED ON UNIT   51 AT END OF TIME STEP   58, STRESS PERIOD    2

 DRAWDOWN WILL BE SAVED ON UNIT   52 AT END OF TIME STEP   58, STRESS PERIOD    2
1
  VOLUMETRIC BUDGET FOR ENTIRE MODEL AT END OF TIME STEP   58, STRESS PERIOD   2
  ------------------------------------------------------------------------------

     CUMULATIVE VOLUMES      L**3       RATES FOR THIS TIME STEP      L**3/T
     ------------------                 ------------------------

           IN:                                      IN:
           ---                                      ---
             STORAGE =           0.0000               STORAGE =           0.0000
       CONSTANT HEAD =           0.0000         CONSTANT HEAD =           0.0000
               WELLS =        5800.0000                 WELLS =         100.0000
     HEAD DEP BOUNDS =       68460.0938       HEAD DEP BOUNDS =        1151.9442

            TOTAL IN =       74260.0938              TOTAL IN =        1251.9442

          OUT:                                     OUT:
          ----                                     ----
             STORAGE =        4864.7544               STORAGE =          63.4174
       CONSTANT HEAD =           0.0000         CONSTANT HEAD =           0.0000
               WELLS =           0.0000                 WELLS =           0.0000
     HEAD DEP BOUNDS =       69394.4531       HEAD DEP BOUNDS =        1188.5194

           TOTAL OUT =       74259.2109             TOTAL OUT =        1251.9369

            IN - OUT =           0.8828              IN - OUT =       7.3242E-03

 PERCENT DISCREPANCY =           0.00     PERCENT DISCREPANCY =           0.00






         TIME SUMMARY AT END OF TIME STEP   58 IN STRESS PERIOD    2
                    SECONDS     MINUTES      HOURS       DAYS        YEARS
                    -----------------------------------------------------------
   TIME STEP LENGTH  86400.      1440.0      24.000      1.0000     2.73785E-03
 STRESS PERIOD TIME 5.01120E+06  83520.      1392.0      58.000     0.15880    
         TOTAL TIME 5.09760E+06  84960.      1416.0      59.000     0.16153    
1
 
 SOLVING FOR HEAD 

 OUTPUT CONTROL FOR STRESS PERIOD    2   TIME STEP   59
    SAVE HEAD FOR ALL LAYERS
    SAVE DRAWDOWN FOR ALL LAYERS
    SAVE BUDGET
    PRINT HEAD FOR ALL LAYERS
    PRINT BUDGET
 UBDSV1 SAVING "         STORAGE" ON UNIT  53 AT TIME STEP 59, STRESS PERIOD   2
 UBDSV2 SAVING "   CONSTANT HEAD" ON UNIT  53 AT TIME STEP 59, STRESS PERIOD   2
 UBDSV1 SAVING "FLOW RIGHT FACE " ON UNIT  53 AT TIME STEP 59, STRESS PERIOD   2
 UBDSV1 SAVING "FLOW FRONT FACE " ON UNIT  53 AT TIME STEP 59, STRESS PERIOD   2
 UBDSV1 SAVING "FLOW LOWER FACE " ON UNIT  53 AT TIME STEP 59, STRESS PERIOD   2

 SAVING SATURATED THICKNESS AND FLOW TERMS ON UNIT   54 FOR MT3DMS
 BY THE LINK-MT3DMS PACKAGE V7 AT TIME STEP   59, STRESS PERIOD    2

1
              HEAD IN LAYER   1 AT END OF TIME STEP  59 IN STRESS PERIOD    2
  ---------------------------------------------------------------------------

            1           2           3           4           5           6           7           8           9          10
 ........................................................................................................................
   1    9.998       8.940       7.870       6.788       5.694       4.587       3.463       2.325       1.172      1.5283E-03
   2    9.998       8.942       7.873       6.794       5.703       4.596       3.472       2.331       1.175      1.5320E-03
   3    9.998       8.945       7.880       6.807       5.722       4.619       3.491       2.343       1.181      1.5397E-03
   4    9.998       8.949       7.891       6.827       5.756       4.666       3.525       2.363       1.189      1.5515E-03
   5    9.998       8.953       7.902       6.852       5.810       4.770       3.581       2.388       1.199      1.5649E-03
   6    9.998       8.955       7.908       6.871       5.877       5.065       3.650       2.408       1.205      1.5727E-03
   7    9.998       8.954       7.902       6.853       5.811       4.771       3.582       2.389       1.200      1.5654E-03
   8    9.998       8.950       7.892       6.828       5.758       4.668       3.527       2.364       1.190      1.5526E-03
   9    9.998       8.946       7.883       6.810       5.726       4.624       3.495       2.346       1.182      1.5422E-03
  10    9.998       8.944       7.878       6.801       5.712       4.606       3.481       2.337       1.178      1.5366E-03
1
              HEAD IN LAYER   2 AT END OF TIME STEP  59 IN STRESS PERIOD    2
  ---------------------------------------------------------------------------

            1           2           3           4           5           6           7           8           9          10
 ........................................................................................................................
   1    9.998       8.939       7.868       6.787       5.693       4.586       3.462       2.324       1.171      2.5141E-03
   2    9.998       8.940       7.872       6.793       5.702       4.595       3.471       2.329       1.173      2.5200E-03
   3    9.998       8.943       7.879       6.806       5.721       4.618       3.490       2.342       1.179      2.5325E-03
   4    9.998       8.948       7.890       6.826       5.755       4.666       3.524       2.362       1.188      2.5513E-03
   5    9.998       8.952       7.901       6.852       5.810       4.769       3.580       2.387       1.198      2.5727E-03
   6    9.998       8.954       7.907       6.870       5.876       5.105       3.648       2.407       1.204      2.5852E-03
   7    9.998       8.952       7.902       6.852       5.811       4.770       3.581       2.388       1.198      2.5735E-03
   8    9.998       8.948       7.891       6.828       5.758       4.668       3.527       2.363       1.189      2.5533E-03
   9    9.998       8.945       7.882       6.810       5.726       4.624       3.495       2.345       1.181      2.5365E-03
  10    9.998       8.943       7.877       6.801       5.712       4.606       3.480       2.336       1.177      2.5276E-03
1
              HEAD IN LAYER   3 AT END OF TIME STEP  59 IN STRESS PERIOD    2
  ---------------------------------------------------------------------------

            1           2           3           4           5           6           7           8           9          10
 ........................................................................................................................
   1    9.998       8.938       7.867       6.786       5.692       4.585       3.461       2.322       1.169      2.5642E-03
   2    9.998       8.939       7.871       6.792       5.701       4.594       3.470       2.328       1.172      2.5704E-03
   3    9.998       8.942       7.878       6.805       5.720       4.618       3.489       2.341       1.178      2.5833E-03
   4    9.998       8.947       7.889       6.826       5.755       4.665       3.524       2.361       1.187      2.6027E-03
   5    9.998       8.951       7.900       6.851       5.809       4.763       3.579       2.386       1.197      2.6246E-03
   6    9.998       8.953       7.907       6.870       5.871       4.996       3.642       2.405       1.203      2.6373E-03
   7    9.998       8.951       7.901       6.852       5.810       4.764       3.580       2.387       1.197      2.6254E-03
   8    9.998       8.947       7.890       6.828       5.758       4.668       3.526       2.362       1.188      2.6047E-03
   9    9.998       8.944       7.881       6.809       5.726       4.623       3.494       2.344       1.180      2.5875E-03
  10    9.998       8.942       7.876       6.800       5.711       4.605       3.479       2.335       1.176      2.5784E-03
1
              HEAD IN LAYER   4 AT END OF TIME STEP  59 IN STRESS PERIOD    2
  ---------------------------------------------------------------------------

            1           2           3           4           5           6           7           8           9          10
 ........................................................................................................................
   1    9.998       8.937       7.867       6.785       5.692       4.584       3.460       2.321       1.168      2.5644E-03
   2    9.998       8.938       7.870       6.792       5.701       4.594       3.469       2.327       1.171      2.5707E-03
   3    9.998       8.942       7.878       6.805       5.720       4.617       3.488       2.340       1.177      2.5837E-03
   4    9.998       8.946       7.888       6.825       5.755       4.664       3.523       2.360       1.186      2.6032E-03
   5    9.998       8.951       7.900       6.851       5.809       4.757       3.578       2.386       1.196      2.6252E-03
   6    9.998       8.953       7.906       6.870       5.866       4.932       3.636       2.404       1.202      2.6379E-03
   7    9.998       8.951       7.901       6.852       5.810       4.758       3.579       2.387       1.196      2.6260E-03
   8    9.998       8.947       7.890       6.827       5.757       4.667       3.526       2.362       1.187      2.6053E-03
   9    9.998       8.943       7.881       6.809       5.725       4.623       3.494       2.344       1.179      2.5880E-03
  10    9.998       8.941       7.875       6.800       5.711       4.605       3.479       2.334       1.175      2.5788E-03
1
              HEAD IN LAYER   5 AT END OF TIME STEP  59 IN STRESS PERIOD    2
  ---------------------------------------------------------------------------

            1           2           3           4           5           6           7           8           9          10
 ........................................................................................................................
   1    9.998       8.936       7.866       6.785       5.692       4.584       3.460       2.321       1.168      2.5635E-03
   2    9.998       8.938       7.870       6.791       5.700       4.594       3.469       2.327       1.171      2.5698E-03
   3    9.998       8.941       7.877       6.804       5.720       4.617       3.488       2.340       1.177      2.5829E-03
   4    9.998       8.946       7.888       6.825       5.755       4.664       3.523       2.360       1.186      2.6024E-03
   5    9.998       8.950       7.900       6.851       5.808       4.754       3.577       2.385       1.196      2.6244E-03
   6    9.998       8.953       7.906       6.869       5.863       4.902       3.632       2.404       1.201      2.6371E-03
   7    9.998       8.951       7.900       6.852       5.809       4.755       3.578       2.386       1.196      2.6253E-03
   8    9.998       8.947       7.890       6.827       5.757       4.667       3.526       2.362       1.186      2.6046E-03
   9    9.998       8.943       7.880       6.809       5.725       4.623       3.493       2.343       1.179      2.5873E-03
  10    9.998       8.941       7.875       6.799       5.711       4.605       3.479       2.334       1.174      2.5780E-03

 HEAD WILL BE SAVED ON UNIT   51 AT END OF TIME STEP   59, STRESS PERIOD    2

 DRAWDOWN WILL BE SAVED ON UNIT   52 AT END OF TIME STEP   59, STRESS PERIOD    2
1
  VOLUMETRIC BUDGET FOR ENTIRE MODEL AT END OF TIME STEP   59, STRESS PERIOD   2
  ------------------------------------------------------------------------------

     CUMULATIVE VOLUMES      L**3       RATES FOR THIS TIME STEP      L**3/T
     ------------------                 ------------------------

           IN:                                      IN:
           ---                                      ---
             STORAGE =           0.0000               STORAGE =           0.0000
       CONSTANT HEAD =           0.0000         CONSTANT HEAD =           0.0000
               WELLS =        5900.0000                 WELLS =         100.0000
     HEAD DEP BOUNDS =       69611.7344       HEAD DEP BOUNDS =        1151.6427

            TOTAL IN =       75511.7344              TOTAL IN =        1251.6427

          OUT:                                     OUT:
          ----                                     ----
             STORAGE =        4927.4844               STORAGE =          62.7299
       CONSTANT HEAD =           0.0000         CONSTANT HEAD =           0.0000
               WELLS =           0.0000                 WELLS =           0.0000
     HEAD DEP BOUNDS =       70583.3516       HEAD DEP BOUNDS =        1188.8981

           TOTAL OUT =       75510.8359             TOTAL OUT =        1251.6279

            IN - OUT =           0.8984              IN - OUT =       1.4771E-02

 PERCENT DISCREPANCY =           0.00     PERCENT DISCREPANCY =           0.00






         TIME SUMMARY AT END OF TIME STEP   59 IN STRESS PERIOD    2
                    SECONDS     MINUTES      HOURS       DAYS        YEARS
                    -----------------------------------------------------------
   TIME STEP LENGTH  86400.      1440.0      24.000      1.0000     2.73785E-03
 STRESS PERIOD TIME 5.09760E+06  84960.      1416.0      59.000     0.16153    
         TOTAL TIME 5.18400E+06  86400.      1440.0      60.000     0.16427    
1
 
 SOLVING FOR HEAD 

 OUTPUT CONTROL FOR STRESS PERIOD    2   TIME STEP   60
    SAVE HEAD FOR ALL LAYERS
    SAVE DRAWDOWN FOR ALL LAYERS
    SAVE BUDGET
    PRINT HEAD FOR ALL LAYERS
    PRINT BUDGET
 UBDSV1 SAVING "         STORAGE" ON UNIT  53 AT TIME STEP 60, STRESS PERIOD   2
 UBDSV2 SAVING "   CONSTANT HEAD" ON UNIT  53 AT TIME STEP 60, STRESS PERIOD   2
 UBDSV1 SAVING "FLOW RIGHT FACE " ON UNIT  53 AT TIME STEP 60, STRESS PERIOD   2
 UBDSV1 SAVING "FLOW FRONT FACE " ON UNIT  53 AT TIME STEP 60, STRESS PERIOD   2
 UBDSV1 SAVING "FLOW LOWER FACE " ON UNIT  53 AT TIME STEP 60, STRESS PERIOD   2

 SAVING SATURATED THICKNESS AND FLOW TERMS ON UNIT   54 FOR MT3DMS
 BY THE LINK-MT3DMS PACKAGE V7 AT TIME STEP   60, STRESS PERIOD    2

1
              HEAD IN LAYER   1 AT END OF TIME STEP  60 IN STRESS PERIOD    2
  ---------------------------------------------------------------------------

            1           2           3           4           5           6           7           8           9          10
 ........................................................................................................................
   1    9.998       8.940       7.870       6.789       5.695       4.587       3.464       2.325       1.172      1.5285E-03
   2    9.998       8.942       7.874       6.795       5.703       4.597       3.472       2.331       1.175      1.5323E-03
   3    9.998       8.945       7.881       6.807       5.722       4.620       3.491       2.343       1.181      1.5402E-03
   4    9.998       8.949       7.891       6.827       5.757       4.667       3.526       2.363       1.190      1.5521E-03
   5    9.998       8.954       7.902       6.853       5.811       4.771       3.582       2.389       1.200      1.5656E-03
   6    9.998       8.956       7.909       6.872       5.878       5.067       3.651       2.409       1.206      1.5734E-03
   7    9.998       8.954       7.903       6.854       5.812       4.772       3.583       2.390       1.200      1.5660E-03
   8    9.998       8.950       7.892       6.829       5.759       4.670       3.528       2.365       1.191      1.5533E-03
   9    9.998       8.946       7.883       6.811       5.727       4.625       3.496       2.347       1.183      1.5427E-03
  10    9.998       8.944       7.878       6.802       5.713       4.607       3.482       2.338       1.179      1.5371E-03
1
              HEAD IN LAYER   2 AT END OF TIME STEP  60 IN STRESS PERIOD    2
  ---------------------------------------------------------------------------

            1           2           3           4           5           6           7           8           9          10
 ........................................................................................................................
   1    9.998       8.939       7.869       6.788       5.694       4.586       3.463       2.324       1.171      2.5145E-03
   2    9.998       8.940       7.872       6.794       5.702       4.596       3.471       2.330       1.174      2.5206E-03
   3    9.998       8.944       7.880       6.806       5.722       4.619       3.491       2.342       1.179      2.5332E-03
   4    9.998       8.948       7.890       6.827       5.756       4.667       3.525       2.362       1.188      2.5522E-03
   5    9.998       8.952       7.902       6.853       5.811       4.770       3.581       2.388       1.198      2.5737E-03
   6    9.998       8.955       7.908       6.871       5.877       5.106       3.649       2.407       1.204      2.5863E-03
   7    9.998       8.953       7.902       6.853       5.812       4.771       3.582       2.389       1.199      2.5745E-03
   8    9.998       8.949       7.892       6.829       5.759       4.669       3.528       2.364       1.189      2.5542E-03
   9    9.998       8.945       7.882       6.811       5.727       4.625       3.495       2.346       1.181      2.5373E-03
  10    9.998       8.943       7.877       6.801       5.712       4.607       3.481       2.337       1.177      2.5284E-03
1
              HEAD IN LAYER   3 AT END OF TIME STEP  60 IN STRESS PERIOD    2
  ---------------------------------------------------------------------------

            1           2           3           4           5           6           7           8           9          10
 ........................................................................................................................
   1    9.998       8.938       7.868       6.787       5.693       4.585       3.462       2.323       1.169      2.5647E-03
   2    9.998       8.939       7.871       6.793       5.702       4.595       3.470       2.329       1.172      2.5710E-03
   3    9.998       8.943       7.879       6.806       5.721       4.619       3.490       2.341       1.178      2.5840E-03
   4    9.998       8.947       7.889       6.826       5.756       4.666       3.525       2.361       1.187      2.6035E-03
   5    9.998       8.951       7.901       6.852       5.810       4.764       3.580       2.387       1.197      2.6255E-03
   6    9.998       8.954       7.908       6.871       5.872       4.997       3.643       2.406       1.203      2.6384E-03
   7    9.998       8.952       7.902       6.853       5.812       4.765       3.581       2.388       1.198      2.6264E-03
   8    9.998       8.948       7.891       6.829       5.759       4.669       3.527       2.363       1.188      2.6057E-03
   9    9.998       8.944       7.882       6.810       5.727       4.624       3.495       2.345       1.180      2.5883E-03
  10    9.998       8.942       7.877       6.801       5.712       4.606       3.480       2.336       1.176      2.5791E-03
1
              HEAD IN LAYER   4 AT END OF TIME STEP  60 IN STRESS PERIOD    2
  ---------------------------------------------------------------------------

            1           2           3           4           5           6           7           8           9          10
 ........................................................................................................................
   1    9.998       8.937       7.867       6.786       5.692       4.585       3.461       2.322       1.168      2.5649E-03
   2    9.998       8.939       7.871       6.792       5.701       4.595       3.470       2.328       1.171      2.5712E-03
   3    9.998       8.942       7.878       6.805       5.721       4.618       3.489       2.340       1.177      2.5844E-03
   4    9.998       8.946       7.889       6.826       5.756       4.665       3.524       2.361       1.186      2.6040E-03
   5    9.998       8.951       7.901       6.852       5.810       4.758       3.579       2.387       1.196      2.6261E-03
   6    9.998       8.953       7.907       6.870       5.867       4.933       3.637       2.405       1.202      2.6389E-03
   7    9.998       8.951       7.901       6.853       5.811       4.760       3.580       2.387       1.197      2.6270E-03
   8    9.998       8.947       7.890       6.828       5.759       4.668       3.527       2.363       1.187      2.6062E-03
   9    9.998       8.943       7.881       6.810       5.726       4.624       3.495       2.344       1.179      2.5888E-03
  10    9.998       8.941       7.876       6.800       5.712       4.606       3.480       2.335       1.175      2.5796E-03
1
              HEAD IN LAYER   5 AT END OF TIME STEP  60 IN STRESS PERIOD    2
  ---------------------------------------------------------------------------

            1           2           3           4           5           6           7           8           9          10
 ........................................................................................................................
   1    9.998       8.937       7.867       6.786       5.692       4.584       3.461       2.321       1.168      2.5640E-03
   2    9.998       8.938       7.870       6.792       5.701       4.594       3.469       2.327       1.171      2.5703E-03
   3    9.998       8.942       7.878       6.805       5.721       4.618       3.489       2.340       1.177      2.5836E-03
   4    9.998       8.946       7.889       6.826       5.756       4.665       3.524       2.360       1.186      2.6033E-03
   5    9.998       8.951       7.900       6.852       5.809       4.755       3.578       2.386       1.196      2.6254E-03
   6    9.998       8.953       7.907       6.870       5.864       4.904       3.633       2.405       1.202      2.6382E-03
   7    9.998       8.951       7.901       6.853       5.810       4.756       3.579       2.387       1.196      2.6263E-03
   8    9.998       8.947       7.890       6.828       5.758       4.668       3.527       2.362       1.187      2.6055E-03
   9    9.998       8.943       7.881       6.810       5.726       4.624       3.494       2.344       1.179      2.5881E-03
  10    9.998       8.941       7.876       6.800       5.711       4.606       3.480       2.335       1.175      2.5788E-03

 HEAD WILL BE SAVED ON UNIT   51 AT END OF TIME STEP   60, STRESS PERIOD    2

 DRAWDOWN WILL BE SAVED ON UNIT   52 AT END OF TIME STEP   60, STRESS PERIOD    2
1
  VOLUMETRIC BUDGET FOR ENTIRE MODEL AT END OF TIME STEP   60, STRESS PERIOD   2
  ------------------------------------------------------------------------------

     CUMULATIVE VOLUMES      L**3       RATES FOR THIS TIME STEP      L**3/T
     ------------------                 ------------------------

           IN:                                      IN:
           ---                                      ---
             STORAGE =           0.0000               STORAGE =           0.0000
       CONSTANT HEAD =           0.0000         CONSTANT HEAD =           0.0000
               WELLS =        6000.0000                 WELLS =         100.0000
     HEAD DEP BOUNDS =       70763.0703       HEAD DEP BOUNDS =        1151.3357

            TOTAL IN =       76763.0703              TOTAL IN =        1251.3357

          OUT:                                     OUT:
          ----                                     ----
             STORAGE =        4989.5342               STORAGE =          62.0499
       CONSTANT HEAD =           0.0000         CONSTANT HEAD =           0.0000
               WELLS =           0.0000                 WELLS =           0.0000
     HEAD DEP BOUNDS =       71772.6250       HEAD DEP BOUNDS =        1189.2744

           TOTAL OUT =       76762.1562             TOTAL OUT =        1251.3243

            IN - OUT =           0.9141              IN - OUT =       1.1353E-02

 PERCENT DISCREPANCY =           0.00     PERCENT DISCREPANCY =           0.00






         TIME SUMMARY AT END OF TIME STEP   60 IN STRESS PERIOD    2
                    SECONDS     MINUTES      HOURS       DAYS        YEARS
                    -----------------------------------------------------------
   TIME STEP LENGTH  86400.      1440.0      24.000      1.0000     2.73785E-03
 STRESS PERIOD TIME 5.18400E+06  86400.      1440.0      60.000     0.16427    
         TOTAL TIME 5.27040E+06  87840.      1464.0      61.000     0.16701    
1
 
 SOLVING FOR HEAD 

 OUTPUT CONTROL FOR STRESS PERIOD    2   TIME STEP   61
    SAVE HEAD FOR ALL LAYERS
    SAVE DRAWDOWN FOR ALL LAYERS
    SAVE BUDGET
    PRINT HEAD FOR ALL LAYERS
    PRINT BUDGET
 UBDSV1 SAVING "         STORAGE" ON UNIT  53 AT TIME STEP 61, STRESS PERIOD   2
 UBDSV2 SAVING "   CONSTANT HEAD" ON UNIT  53 AT TIME STEP 61, STRESS PERIOD   2
 UBDSV1 SAVING "FLOW RIGHT FACE " ON UNIT  53 AT TIME STEP 61, STRESS PERIOD   2
 UBDSV1 SAVING "FLOW FRONT FACE " ON UNIT  53 AT TIME STEP 61, STRESS PERIOD   2
 UBDSV1 SAVING "FLOW LOWER FACE " ON UNIT  53 AT TIME STEP 61, STRESS PERIOD   2

 SAVING SATURATED THICKNESS AND FLOW TERMS ON UNIT   54 FOR MT3DMS
 BY THE LINK-MT3DMS PACKAGE V7 AT TIME STEP   61, STRESS PERIOD    2

1
              HEAD IN LAYER   1 AT END OF TIME STEP  61 IN STRESS PERIOD    2
  ---------------------------------------------------------------------------

            1           2           3           4           5           6           7           8           9          10
 ........................................................................................................................
   1    9.998       8.941       7.870       6.789       5.696       4.588       3.464       2.326       1.173      1.5289E-03
   2    9.998       8.942       7.874       6.795       5.704       4.598       3.473       2.332       1.175      1.5327E-03
   3    9.998       8.945       7.881       6.808       5.723       4.621       3.492       2.344       1.181      1.5406E-03
   4    9.998       8.950       7.892       6.828       5.758       4.668       3.527       2.364       1.190      1.5526E-03
   5    9.998       8.954       7.903       6.854       5.813       4.772       3.583       2.390       1.200      1.5663E-03
   6    9.998       8.956       7.909       6.873       5.880       5.068       3.652       2.409       1.206      1.5742E-03
   7    9.998       8.954       7.904       6.855       5.814       4.773       3.584       2.391       1.201      1.5667E-03
   8    9.998       8.950       7.893       6.830       5.760       4.671       3.529       2.366       1.191      1.5539E-03
   9    9.998       8.947       7.884       6.812       5.728       4.626       3.497       2.348       1.183      1.5432E-03
  10    9.998       8.945       7.879       6.803       5.714       4.608       3.482       2.338       1.179      1.5376E-03
1
              HEAD IN LAYER   2 AT END OF TIME STEP  61 IN STRESS PERIOD    2
  ---------------------------------------------------------------------------

            1           2           3           4           5           6           7           8           9          10
 ........................................................................................................................
   1    9.998       8.939       7.869       6.788       5.694       4.587       3.463       2.324       1.171      2.5150E-03
   2    9.998       8.941       7.873       6.794       5.703       4.597       3.472       2.330       1.174      2.5211E-03
   3    9.998       8.944       7.880       6.807       5.723       4.620       3.491       2.343       1.180      2.5339E-03
   4    9.998       8.948       7.891       6.828       5.757       4.668       3.526       2.363       1.189      2.5531E-03
   5    9.998       8.953       7.902       6.854       5.812       4.771       3.582       2.389       1.199      2.5747E-03
   6    9.998       8.955       7.909       6.872       5.879       5.108       3.650       2.408       1.205      2.5873E-03
   7    9.998       8.953       7.903       6.854       5.813       4.772       3.583       2.390       1.199      2.5755E-03
   8    9.998       8.949       7.892       6.830       5.760       4.670       3.529       2.365       1.190      2.5551E-03
   9    9.998       8.945       7.883       6.811       5.728       4.626       3.496       2.346       1.182      2.5381E-03
  10    9.998       8.943       7.878       6.802       5.713       4.608       3.482       2.337       1.178      2.5291E-03
1
              HEAD IN LAYER   3 AT END OF TIME STEP  61 IN STRESS PERIOD    2
  ---------------------------------------------------------------------------

            1           2           3           4           5           6           7           8           9          10
 ........................................................................................................................
   1    9.998       8.938       7.868       6.787       5.694       4.586       3.462       2.323       1.170      2.5652E-03
   2    9.998       8.940       7.872       6.793       5.702       4.596       3.471       2.329       1.172      2.5715E-03
   3    9.998       8.943       7.879       6.806       5.722       4.620       3.491       2.342       1.178      2.5847E-03
   4    9.998       8.947       7.890       6.827       5.757       4.667       3.526       2.362       1.187      2.6044E-03
   5    9.998       8.952       7.902       6.853       5.812       4.765       3.581       2.388       1.198      2.6265E-03
   6    9.998       8.954       7.908       6.872       5.873       4.998       3.644       2.407       1.203      2.6394E-03
   7    9.998       8.952       7.902       6.854       5.813       4.766       3.582       2.389       1.198      2.6274E-03
   8    9.998       8.948       7.892       6.829       5.760       4.670       3.528       2.364       1.188      2.6066E-03
   9    9.998       8.944       7.882       6.811       5.728       4.625       3.496       2.346       1.181      2.5892E-03
  10    9.998       8.942       7.877       6.801       5.713       4.607       3.481       2.336       1.176      2.5799E-03
1
              HEAD IN LAYER   4 AT END OF TIME STEP  61 IN STRESS PERIOD    2
  ---------------------------------------------------------------------------

            1           2           3           4           5           6           7           8           9          10
 ........................................................................................................................
   1    9.998       8.937       7.867       6.786       5.693       4.585       3.461       2.322       1.169      2.5654E-03
   2    9.998       8.939       7.871       6.793       5.702       4.595       3.470       2.328       1.172      2.5718E-03
   3    9.998       8.942       7.879       6.806       5.722       4.619       3.490       2.341       1.178      2.5851E-03
   4    9.998       8.947       7.890       6.827       5.757       4.666       3.525       2.362       1.187      2.6049E-03
   5    9.998       8.951       7.901       6.853       5.811       4.760       3.580       2.387       1.197      2.6271E-03
   6    9.998       8.953       7.908       6.871       5.868       4.934       3.638       2.406       1.203      2.6399E-03
   7    9.998       8.952       7.902       6.854       5.812       4.761       3.581       2.388       1.197      2.6280E-03
   8    9.998       8.948       7.891       6.829       5.760       4.669       3.528       2.363       1.188      2.6071E-03
   9    9.998       8.944       7.882       6.810       5.727       4.625       3.495       2.345       1.180      2.5896E-03
  10    9.998       8.942       7.876       6.801       5.713       4.607       3.481       2.336       1.175      2.5803E-03
1
              HEAD IN LAYER   5 AT END OF TIME STEP  61 IN STRESS PERIOD    2
  ---------------------------------------------------------------------------

            1           2           3           4           5           6           7           8           9          10
 ........................................................................................................................
   1    9.998       8.937       7.867       6.786       5.693       4.585       3.461       2.322       1.168      2.5645E-03
   2    9.998       8.939       7.871       6.792       5.702       4.595       3.470       2.328       1.171      2.5709E-03
   3    9.998       8.942       7.878       6.806       5.722       4.619       3.490       2.341       1.177      2.5842E-03
   4    9.998       8.946       7.889       6.827       5.757       4.666       3.525       2.361       1.186      2.6041E-03
   5    9.998       8.951       7.901       6.853       5.810       4.756       3.579       2.387       1.196      2.6263E-03
   6    9.998       8.953       7.908       6.871       5.865       4.905       3.635       2.406       1.202      2.6392E-03
   7    9.998       8.951       7.902       6.854       5.811       4.758       3.580       2.388       1.197      2.6273E-03
   8    9.998       8.947       7.891       6.829       5.759       4.669       3.528       2.363       1.187      2.6064E-03
   9    9.998       8.943       7.881       6.810       5.727       4.625       3.495       2.345       1.179      2.5889E-03
  10    9.998       8.941       7.876       6.801       5.712       4.607       3.480       2.335       1.175      2.5795E-03

 HEAD WILL BE SAVED ON UNIT   51 AT END OF TIME STEP   61, STRESS PERIOD    2

 DRAWDOWN WILL BE SAVED ON UNIT   52 AT END OF TIME STEP   61, STRESS PERIOD    2
1
  VOLUMETRIC BUDGET FOR ENTIRE MODEL AT END OF TIME STEP   61, STRESS PERIOD   2
  ------------------------------------------------------------------------------

     CUMULATIVE VOLUMES      L**3       RATES FOR THIS TIME STEP      L**3/T
     ------------------                 ------------------------

           IN:                                      IN:
           ---                                      ---
             STORAGE =           0.0000               STORAGE =           0.0000
       CONSTANT HEAD =           0.0000         CONSTANT HEAD =           0.0000
               WELLS =        6100.0000                 WELLS =         100.0000
     HEAD DEP BOUNDS =       71914.1094       HEAD DEP BOUNDS =        1151.0376

            TOTAL IN =       78014.1094              TOTAL IN =        1251.0376

          OUT:                                     OUT:
          ----                                     ----
             STORAGE =        5050.8984               STORAGE =          61.3640
       CONSTANT HEAD =           0.0000         CONSTANT HEAD =           0.0000
               WELLS =           0.0000                 WELLS =           0.0000
     HEAD DEP BOUNDS =       72962.2734       HEAD DEP BOUNDS =        1189.6490

           TOTAL OUT =       78013.1719             TOTAL OUT =        1251.0131

            IN - OUT =           0.9375              IN - OUT =       2.4536E-02

 PERCENT DISCREPANCY =           0.00     PERCENT DISCREPANCY =           0.00






         TIME SUMMARY AT END OF TIME STEP   61 IN STRESS PERIOD    2
                    SECONDS     MINUTES      HOURS       DAYS        YEARS
                    -----------------------------------------------------------
   TIME STEP LENGTH  86400.      1440.0      24.000      1.0000     2.73785E-03
 STRESS PERIOD TIME 5.27040E+06  87840.      1464.0      61.000     0.16701    
         TOTAL TIME 5.35680E+06  89280.      1488.0      62.000     0.16975    
1
 
 SOLVING FOR HEAD 

 OUTPUT CONTROL FOR STRESS PERIOD    2   TIME STEP   62
    SAVE HEAD FOR ALL LAYERS
    SAVE DRAWDOWN FOR ALL LAYERS
    SAVE BUDGET
    PRINT HEAD FOR ALL LAYERS
    PRINT BUDGET
 UBDSV1 SAVING "         STORAGE" ON UNIT  53 AT TIME STEP 62, STRESS PERIOD   2
 UBDSV2 SAVING "   CONSTANT HEAD" ON UNIT  53 AT TIME STEP 62, STRESS PERIOD   2
 UBDSV1 SAVING "FLOW RIGHT FACE " ON UNIT  53 AT TIME STEP 62, STRESS PERIOD   2
 UBDSV1 SAVING "FLOW FRONT FACE " ON UNIT  53 AT TIME STEP 62, STRESS PERIOD   2
 UBDSV1 SAVING "FLOW LOWER FACE " ON UNIT  53 AT TIME STEP 62, STRESS PERIOD   2

 SAVING SATURATED THICKNESS AND FLOW TERMS ON UNIT   54 FOR MT3DMS
 BY THE LINK-MT3DMS PACKAGE V7 AT TIME STEP   62, STRESS PERIOD    2

1
              HEAD IN LAYER   1 AT END OF TIME STEP  62 IN STRESS PERIOD    2
  ---------------------------------------------------------------------------

            1           2           3           4           5           6           7           8           9          10
 ........................................................................................................................
   1    9.998       8.941       7.871       6.790       5.696       4.588       3.465       2.326       1.173      1.5292E-03
   2    9.998       8.942       7.874       6.796       5.705       4.598       3.473       2.332       1.176      1.5330E-03
   3    9.998       8.946       7.882       6.809       5.724       4.622       3.493       2.345       1.182      1.5410E-03
   4    9.998       8.950       7.892       6.829       5.759       4.669       3.528       2.365       1.191      1.5532E-03
   5    9.998       8.954       7.904       6.855       5.814       4.774       3.584       2.391       1.201      1.5668E-03
   6    9.998       8.956       7.910       6.874       5.881       5.069       3.653       2.410       1.207      1.5748E-03
   7    9.998       8.955       7.904       6.856       5.815       4.775       3.585       2.391       1.201      1.5673E-03
   8    9.998       8.951       7.894       6.831       5.761       4.672       3.530       2.367       1.192      1.5544E-03
   9    9.998       8.947       7.884       6.813       5.729       4.627       3.498       2.348       1.184      1.5437E-03
  10    9.998       8.945       7.879       6.804       5.715       4.609       3.483       2.339       1.179      1.5380E-03
1
              HEAD IN LAYER   2 AT END OF TIME STEP  62 IN STRESS PERIOD    2
  ---------------------------------------------------------------------------

            1           2           3           4           5           6           7           8           9          10
 ........................................................................................................................
   1    9.998       8.939       7.869       6.788       5.695       4.587       3.464       2.325       1.171      2.5155E-03
   2    9.998       8.941       7.873       6.795       5.704       4.597       3.472       2.331       1.174      2.5217E-03
   3    9.998       8.944       7.881       6.808       5.723       4.621       3.492       2.343       1.180      2.5346E-03
   4    9.998       8.949       7.891       6.828       5.758       4.669       3.527       2.364       1.189      2.5539E-03
   5    9.998       8.953       7.903       6.854       5.814       4.772       3.583       2.390       1.199      2.5757E-03
   6    9.998       8.955       7.909       6.873       5.880       5.109       3.651       2.409       1.205      2.5884E-03
   7    9.998       8.953       7.904       6.855       5.815       4.773       3.584       2.391       1.200      2.5765E-03
   8    9.998       8.949       7.893       6.831       5.761       4.672       3.530       2.366       1.190      2.5560E-03
   9    9.998       8.946       7.883       6.812       5.729       4.627       3.497       2.347       1.182      2.5389E-03
  10    9.998       8.943       7.878       6.803       5.714       4.609       3.482       2.338       1.178      2.5298E-03
1
              HEAD IN LAYER   3 AT END OF TIME STEP  62 IN STRESS PERIOD    2
  ---------------------------------------------------------------------------

            1           2           3           4           5           6           7           8           9          10
 ........................................................................................................................
   1    9.998       8.938       7.868       6.787       5.694       4.586       3.463       2.323       1.170      2.5657E-03
   2    9.998       8.940       7.872       6.794       5.703       4.596       3.471       2.329       1.173      2.5721E-03
   3    9.998       8.943       7.880       6.807       5.723       4.620       3.491       2.342       1.179      2.5854E-03
   4    9.998       8.948       7.891       6.828       5.758       4.668       3.527       2.363       1.188      2.6052E-03
   5    9.998       8.952       7.902       6.854       5.813       4.766       3.582       2.389       1.198      2.6275E-03
   6    9.998       8.954       7.909       6.873       5.875       4.999       3.645       2.408       1.204      2.6404E-03
   7    9.998       8.952       7.903       6.855       5.814       4.768       3.583       2.390       1.198      2.6284E-03
   8    9.998       8.948       7.892       6.830       5.761       4.671       3.529       2.365       1.189      2.6075E-03
   9    9.998       8.945       7.883       6.812       5.728       4.626       3.497       2.346       1.181      2.5900E-03
  10    9.998       8.942       7.878       6.802       5.714       4.608       3.482       2.337       1.177      2.5806E-03
1
              HEAD IN LAYER   4 AT END OF TIME STEP  62 IN STRESS PERIOD    2
  ---------------------------------------------------------------------------

            1           2           3           4           5           6           7           8           9          10
 ........................................................................................................................
   1    9.998       8.937       7.868       6.787       5.694       4.586       3.462       2.323       1.169      2.5658E-03
   2    9.998       8.939       7.871       6.793       5.702       4.596       3.471       2.329       1.172      2.5723E-03
   3    9.998       8.942       7.879       6.807       5.722       4.620       3.491       2.342       1.178      2.5857E-03
   4    9.998       8.947       7.890       6.828       5.758       4.667       3.526       2.362       1.187      2.6057E-03
   5    9.998       8.952       7.902       6.854       5.812       4.761       3.581       2.388       1.197      2.6280E-03
   6    9.998       8.954       7.909       6.872       5.869       4.935       3.639       2.407       1.203      2.6409E-03
   7    9.998       8.952       7.903       6.855       5.813       4.762       3.582       2.389       1.198      2.6290E-03
   8    9.998       8.948       7.892       6.830       5.761       4.670       3.529       2.364       1.188      2.6080E-03
   9    9.998       8.944       7.882       6.811       5.728       4.626       3.496       2.346       1.180      2.5904E-03
  10    9.998       8.942       7.877       6.802       5.713       4.608       3.481       2.336       1.176      2.5810E-03
1
              HEAD IN LAYER   5 AT END OF TIME STEP  62 IN STRESS PERIOD    2
  ---------------------------------------------------------------------------

            1           2           3           4           5           6           7           8           9          10
 ........................................................................................................................
   1    9.998       8.937       7.867       6.787       5.693       4.585       3.462       2.322       1.168      2.5649E-03
   2    9.998       8.939       7.871       6.793       5.702       4.596       3.471       2.328       1.171      2.5715E-03
   3    9.998       8.942       7.879       6.806       5.722       4.620       3.491       2.341       1.178      2.5849E-03
   4    9.998       8.947       7.890       6.828       5.758       4.667       3.526       2.362       1.187      2.6049E-03
   5    9.998       8.951       7.902       6.854       5.811       4.758       3.580       2.388       1.197      2.6273E-03
   6    9.998       8.954       7.908       6.872       5.866       4.906       3.636       2.406       1.203      2.6402E-03
   7    9.998       8.952       7.902       6.855       5.812       4.759       3.581       2.389       1.197      2.6282E-03
   8    9.998       8.948       7.891       6.830       5.761       4.670       3.529       2.364       1.188      2.6073E-03
   9    9.998       8.944       7.882       6.811       5.728       4.626       3.496       2.345       1.180      2.5897E-03
  10    9.998       8.941       7.877       6.802       5.713       4.608       3.481       2.336       1.175      2.5803E-03

 HEAD WILL BE SAVED ON UNIT   51 AT END OF TIME STEP   62, STRESS PERIOD    2

 DRAWDOWN WILL BE SAVED ON UNIT   52 AT END OF TIME STEP   62, STRESS PERIOD    2
1
  VOLUMETRIC BUDGET FOR ENTIRE MODEL AT END OF TIME STEP   62, STRESS PERIOD   2
  ------------------------------------------------------------------------------

     CUMULATIVE VOLUMES      L**3       RATES FOR THIS TIME STEP      L**3/T
     ------------------                 ------------------------

           IN:                                      IN:
           ---                                      ---
             STORAGE =           0.0000               STORAGE =           0.0000
       CONSTANT HEAD =           0.0000         CONSTANT HEAD =           0.0000
               WELLS =        6200.0000                 WELLS =         100.0000
     HEAD DEP BOUNDS =       73064.8438       HEAD DEP BOUNDS =        1150.7344

            TOTAL IN =       79264.8438              TOTAL IN =        1250.7344

          OUT:                                     OUT:
          ----                                     ----
             STORAGE =        5111.6001               STORAGE =          60.7016
       CONSTANT HEAD =           0.0000         CONSTANT HEAD =           0.0000
               WELLS =           0.0000                 WELLS =           0.0000
     HEAD DEP BOUNDS =       74152.2891       HEAD DEP BOUNDS =        1190.0142

           TOTAL OUT =       79263.8906             TOTAL OUT =        1250.7157

            IN - OUT =           0.9531              IN - OUT =       1.8677E-02

 PERCENT DISCREPANCY =           0.00     PERCENT DISCREPANCY =           0.00






         TIME SUMMARY AT END OF TIME STEP   62 IN STRESS PERIOD    2
                    SECONDS     MINUTES      HOURS       DAYS        YEARS
                    -----------------------------------------------------------
   TIME STEP LENGTH  86400.      1440.0      24.000      1.0000     2.73785E-03
 STRESS PERIOD TIME 5.35680E+06  89280.      1488.0      62.000     0.16975    
         TOTAL TIME 5.44320E+06  90720.      1512.0      63.000     0.17248    
1
 
 SOLVING FOR HEAD 

 OUTPUT CONTROL FOR STRESS PERIOD    2   TIME STEP   63
    SAVE HEAD FOR ALL LAYERS
    SAVE DRAWDOWN FOR ALL LAYERS
    SAVE BUDGET
    PRINT HEAD FOR ALL LAYERS
    PRINT BUDGET
 UBDSV1 SAVING "         STORAGE" ON UNIT  53 AT TIME STEP 63, STRESS PERIOD   2
 UBDSV2 SAVING "   CONSTANT HEAD" ON UNIT  53 AT TIME STEP 63, STRESS PERIOD   2
 UBDSV1 SAVING "FLOW RIGHT FACE " ON UNIT  53 AT TIME STEP 63, STRESS PERIOD   2
 UBDSV1 SAVING "FLOW FRONT FACE " ON UNIT  53 AT TIME STEP 63, STRESS PERIOD   2
 UBDSV1 SAVING "FLOW LOWER FACE " ON UNIT  53 AT TIME STEP 63, STRESS PERIOD   2

 SAVING SATURATED THICKNESS AND FLOW TERMS ON UNIT   54 FOR MT3DMS
 BY THE LINK-MT3DMS PACKAGE V7 AT TIME STEP   63, STRESS PERIOD    2

1
              HEAD IN LAYER   1 AT END OF TIME STEP  63 IN STRESS PERIOD    2
  ---------------------------------------------------------------------------

            1           2           3           4           5           6           7           8           9          10
 ........................................................................................................................
   1    9.998       8.941       7.871       6.790       5.697       4.589       3.465       2.327       1.173      1.5294E-03
   2    9.998       8.943       7.875       6.796       5.705       4.599       3.474       2.332       1.176      1.5333E-03
   3    9.998       8.946       7.882       6.809       5.725       4.623       3.494       2.345       1.182      1.5415E-03
   4    9.998       8.950       7.893       6.830       5.760       4.670       3.529       2.365       1.191      1.5537E-03
   5    9.998       8.955       7.904       6.856       5.815       4.775       3.585       2.392       1.201      1.5674E-03
   6    9.998       8.957       7.911       6.875       5.882       5.071       3.655       2.411       1.207      1.5754E-03
   7    9.998       8.955       7.905       6.857       5.816       4.776       3.586       2.392       1.201      1.5679E-03
   8    9.998       8.951       7.894       6.832       5.762       4.673       3.531       2.367       1.192      1.5550E-03
   9    9.998       8.947       7.885       6.814       5.730       4.628       3.499       2.349       1.184      1.5442E-03
  10    9.998       8.945       7.880       6.804       5.716       4.610       3.484       2.340       1.180      1.5385E-03
1
              HEAD IN LAYER   2 AT END OF TIME STEP  63 IN STRESS PERIOD    2
  ---------------------------------------------------------------------------

            1           2           3           4           5           6           7           8           9          10
 ........................................................................................................................
   1    9.998       8.939       7.870       6.789       5.696       4.588       3.464       2.325       1.171      2.5160E-03
   2    9.998       8.941       7.873       6.795       5.704       4.598       3.473       2.331       1.174      2.5222E-03
   3    9.998       8.944       7.881       6.808       5.724       4.622       3.493       2.344       1.180      2.5353E-03
   4    9.998       8.949       7.892       6.829       5.759       4.670       3.528       2.364       1.189      2.5547E-03
   5    9.998       8.953       7.904       6.855       5.815       4.773       3.584       2.391       1.200      2.5766E-03
   6    9.998       8.956       7.910       6.874       5.881       5.110       3.652       2.410       1.206      2.5894E-03
   7    9.998       8.954       7.904       6.856       5.816       4.775       3.585       2.391       1.200      2.5775E-03
   8    9.998       8.950       7.893       6.832       5.762       4.673       3.531       2.366       1.191      2.5569E-03
   9    9.998       8.946       7.884       6.813       5.730       4.628       3.498       2.348       1.183      2.5397E-03
  10    9.998       8.944       7.879       6.803       5.715       4.609       3.483       2.339       1.178      2.5306E-03
1
              HEAD IN LAYER   3 AT END OF TIME STEP  63 IN STRESS PERIOD    2
  ---------------------------------------------------------------------------

            1           2           3           4           5           6           7           8           9          10
 ........................................................................................................................
   1    9.998       8.938       7.869       6.788       5.695       4.587       3.463       2.324       1.170      2.5661E-03
   2    9.998       8.940       7.872       6.794       5.704       4.597       3.472       2.330       1.173      2.5726E-03
   3    9.998       8.943       7.880       6.808       5.724       4.621       3.492       2.343       1.179      2.5861E-03
   4    9.998       8.948       7.891       6.829       5.759       4.669       3.528       2.364       1.188      2.6060E-03
   5    9.998       8.952       7.903       6.855       5.814       4.768       3.583       2.390       1.198      2.6284E-03
   6    9.998       8.955       7.910       6.874       5.876       5.001       3.646       2.409       1.204      2.6414E-03
   7    9.998       8.953       7.904       6.856       5.815       4.769       3.584       2.390       1.199      2.6294E-03
   8    9.998       8.949       7.893       6.831       5.762       4.672       3.530       2.366       1.189      2.6084E-03
   9    9.998       8.945       7.883       6.812       5.729       4.627       3.498       2.347       1.181      2.5908E-03
  10    9.998       8.943       7.878       6.803       5.715       4.609       3.483       2.338       1.177      2.5814E-03
1
              HEAD IN LAYER   4 AT END OF TIME STEP  63 IN STRESS PERIOD    2
  ---------------------------------------------------------------------------

            1           2           3           4           5           6           7           8           9          10
 ........................................................................................................................
   1    9.998       8.938       7.868       6.787       5.694       4.586       3.463       2.323       1.169      2.5663E-03
   2    9.998       8.939       7.872       6.794       5.703       4.597       3.471       2.329       1.172      2.5729E-03
   3    9.998       8.943       7.880       6.807       5.723       4.621       3.492       2.342       1.178      2.5864E-03
   4    9.998       8.947       7.891       6.828       5.759       4.668       3.527       2.363       1.187      2.6065E-03
   5    9.998       8.952       7.903       6.855       5.813       4.762       3.582       2.389       1.198      2.6290E-03
   6    9.998       8.954       7.909       6.873       5.870       4.937       3.640       2.408       1.204      2.6419E-03
   7    9.998       8.952       7.903       6.856       5.814       4.763       3.583       2.390       1.198      2.6299E-03
   8    9.998       8.948       7.892       6.831       5.762       4.671       3.530       2.365       1.189      2.6089E-03
   9    9.998       8.944       7.883       6.812       5.729       4.627       3.497       2.346       1.180      2.5912E-03
  10    9.998       8.942       7.878       6.802       5.714       4.609       3.482       2.337       1.176      2.5818E-03
1
              HEAD IN LAYER   5 AT END OF TIME STEP  63 IN STRESS PERIOD    2
  ---------------------------------------------------------------------------

            1           2           3           4           5           6           7           8           9          10
 ........................................................................................................................
   1    9.998       8.937       7.868       6.787       5.694       4.586       3.462       2.323       1.169      2.5654E-03
   2    9.998       8.939       7.871       6.793       5.703       4.596       3.471       2.329       1.172      2.5720E-03
   3    9.998       8.942       7.879       6.807       5.723       4.621       3.491       2.342       1.178      2.5856E-03
   4    9.998       8.947       7.890       6.828       5.759       4.668       3.527       2.363       1.187      2.6057E-03
   5    9.998       8.952       7.902       6.855       5.812       4.759       3.581       2.389       1.197      2.6282E-03
   6    9.998       8.954       7.909       6.873       5.867       4.907       3.637       2.407       1.203      2.6411E-03
   7    9.998       8.952       7.903       6.856       5.814       4.760       3.582       2.390       1.198      2.6292E-03
   8    9.998       8.948       7.892       6.831       5.762       4.671       3.530       2.365       1.188      2.6082E-03
   9    9.998       8.944       7.882       6.812       5.729       4.627       3.497       2.346       1.180      2.5905E-03
  10    9.998       8.942       7.877       6.802       5.714       4.608       3.482       2.337       1.176      2.5810E-03

 HEAD WILL BE SAVED ON UNIT   51 AT END OF TIME STEP   63, STRESS PERIOD    2

 DRAWDOWN WILL BE SAVED ON UNIT   52 AT END OF TIME STEP   63, STRESS PERIOD    2
1
  VOLUMETRIC BUDGET FOR ENTIRE MODEL AT END OF TIME STEP   63, STRESS PERIOD   2
  ------------------------------------------------------------------------------

     CUMULATIVE VOLUMES      L**3       RATES FOR THIS TIME STEP      L**3/T
     ------------------                 ------------------------

           IN:                                      IN:
           ---                                      ---
             STORAGE =           0.0000               STORAGE =           0.0000
       CONSTANT HEAD =           0.0000         CONSTANT HEAD =           0.0000
               WELLS =        6300.0000                 WELLS =         100.0000
     HEAD DEP BOUNDS =       74215.2812       HEAD DEP BOUNDS =        1150.4401

            TOTAL IN =       80515.2812              TOTAL IN =        1250.4401

          OUT:                                     OUT:
          ----                                     ----
             STORAGE =        5171.6377               STORAGE =          60.0375
       CONSTANT HEAD =           0.0000         CONSTANT HEAD =           0.0000
               WELLS =           0.0000                 WELLS =           0.0000
     HEAD DEP BOUNDS =       75342.6641       HEAD DEP BOUNDS =        1190.3778

           TOTAL OUT =       80514.3047             TOTAL OUT =        1250.4153

            IN - OUT =           0.9766              IN - OUT =       2.4780E-02

 PERCENT DISCREPANCY =           0.00     PERCENT DISCREPANCY =           0.00






         TIME SUMMARY AT END OF TIME STEP   63 IN STRESS PERIOD    2
                    SECONDS     MINUTES      HOURS       DAYS        YEARS
                    -----------------------------------------------------------
   TIME STEP LENGTH  86400.      1440.0      24.000      1.0000     2.73785E-03
 STRESS PERIOD TIME 5.44320E+06  90720.      1512.0      63.000     0.17248    
         TOTAL TIME 5.52960E+06  92160.      1536.0      64.000     0.17522    
1
 
 SOLVING FOR HEAD 

 OUTPUT CONTROL FOR STRESS PERIOD    2   TIME STEP   64
    SAVE HEAD FOR ALL LAYERS
    SAVE DRAWDOWN FOR ALL LAYERS
    SAVE BUDGET
    PRINT HEAD FOR ALL LAYERS
    PRINT BUDGET
 UBDSV1 SAVING "         STORAGE" ON UNIT  53 AT TIME STEP 64, STRESS PERIOD   2
 UBDSV2 SAVING "   CONSTANT HEAD" ON UNIT  53 AT TIME STEP 64, STRESS PERIOD   2
 UBDSV1 SAVING "FLOW RIGHT FACE " ON UNIT  53 AT TIME STEP 64, STRESS PERIOD   2
 UBDSV1 SAVING "FLOW FRONT FACE " ON UNIT  53 AT TIME STEP 64, STRESS PERIOD   2
 UBDSV1 SAVING "FLOW LOWER FACE " ON UNIT  53 AT TIME STEP 64, STRESS PERIOD   2

 SAVING SATURATED THICKNESS AND FLOW TERMS ON UNIT   54 FOR MT3DMS
 BY THE LINK-MT3DMS PACKAGE V7 AT TIME STEP   64, STRESS PERIOD    2

1
              HEAD IN LAYER   1 AT END OF TIME STEP  64 IN STRESS PERIOD    2
  ---------------------------------------------------------------------------

            1           2           3           4           5           6           7           8           9          10
 ........................................................................................................................
   1    9.998       8.941       7.871       6.791       5.697       4.590       3.466       2.327       1.173      1.5298E-03
   2    9.998       8.943       7.875       6.797       5.706       4.600       3.475       2.333       1.176      1.5337E-03
   3    9.998       8.946       7.883       6.810       5.726       4.623       3.494       2.346       1.182      1.5419E-03
   4    9.998       8.950       7.893       6.831       5.761       4.671       3.530       2.366       1.191      1.5542E-03
   5    9.998       8.955       7.905       6.857       5.816       4.776       3.586       2.392       1.202      1.5680E-03
   6    9.998       8.957       7.912       6.876       5.883       5.072       3.656       2.412       1.208      1.5761E-03
   7    9.998       8.955       7.906       6.858       5.817       4.777       3.587       2.393       1.202      1.5685E-03
   8    9.998       8.951       7.895       6.833       5.763       4.674       3.532       2.368       1.192      1.5556E-03
   9    9.998       8.948       7.886       6.814       5.731       4.629       3.500       2.350       1.184      1.5447E-03
  10    9.998       8.945       7.881       6.805       5.716       4.611       3.485       2.340       1.180      1.5389E-03
1
              HEAD IN LAYER   2 AT END OF TIME STEP  64 IN STRESS PERIOD    2
  ---------------------------------------------------------------------------

            1           2           3           4           5           6           7           8           9          10
 ........................................................................................................................
   1    9.998       8.940       7.870       6.789       5.696       4.588       3.465       2.326       1.172      2.5164E-03
   2    9.998       8.941       7.874       6.796       5.705       4.599       3.474       2.332       1.175      2.5228E-03
   3    9.998       8.945       7.881       6.809       5.725       4.623       3.494       2.345       1.181      2.5359E-03
   4    9.998       8.949       7.892       6.830       5.760       4.671       3.529       2.365       1.190      2.5555E-03
   5    9.998       8.954       7.904       6.856       5.816       4.774       3.585       2.391       1.200      2.5775E-03
   6    9.998       8.956       7.911       6.875       5.882       5.111       3.654       2.411       1.206      2.5904E-03
   7    9.998       8.954       7.905       6.857       5.817       4.776       3.586       2.392       1.201      2.5785E-03
   8    9.998       8.950       7.894       6.832       5.763       4.674       3.532       2.367       1.191      2.5578E-03
   9    9.998       8.946       7.885       6.814       5.731       4.629       3.499       2.349       1.183      2.5405E-03
  10    9.998       8.944       7.879       6.804       5.716       4.610       3.484       2.339       1.179      2.5313E-03
1
              HEAD IN LAYER   3 AT END OF TIME STEP  64 IN STRESS PERIOD    2
  ---------------------------------------------------------------------------

            1           2           3           4           5           6           7           8           9          10
 ........................................................................................................................
   1    9.998       8.938       7.869       6.788       5.695       4.588       3.464       2.324       1.170      2.5666E-03
   2    9.998       8.940       7.873       6.795       5.704       4.598       3.473       2.330       1.173      2.5732E-03
   3    9.998       8.944       7.881       6.808       5.724       4.622       3.493       2.343       1.179      2.5867E-03
   4    9.998       8.948       7.892       6.830       5.760       4.670       3.528       2.364       1.189      2.6069E-03
   5    9.998       8.953       7.904       6.856       5.815       4.769       3.584       2.390       1.199      2.6294E-03
   6    9.998       8.955       7.910       6.875       5.877       5.002       3.647       2.410       1.205      2.6424E-03
   7    9.998       8.953       7.904       6.857       5.816       4.770       3.585       2.391       1.199      2.6303E-03
   8    9.998       8.949       7.893       6.832       5.763       4.673       3.531       2.366       1.190      2.6093E-03
   9    9.998       8.945       7.884       6.813       5.730       4.628       3.498       2.348       1.182      2.5916E-03
  10    9.998       8.943       7.879       6.804       5.715       4.610       3.483       2.338       1.177      2.5821E-03
1
              HEAD IN LAYER   4 AT END OF TIME STEP  64 IN STRESS PERIOD    2
  ---------------------------------------------------------------------------

            1           2           3           4           5           6           7           8           9          10
 ........................................................................................................................
   1    9.998       8.938       7.868       6.788       5.695       4.587       3.463       2.323       1.169      2.5668E-03
   2    9.998       8.939       7.872       6.794       5.704       4.597       3.472       2.330       1.172      2.5734E-03
   3    9.998       8.943       7.880       6.808       5.724       4.622       3.492       2.343       1.179      2.5871E-03
   4    9.998       8.948       7.891       6.829       5.760       4.669       3.528       2.364       1.188      2.6073E-03
   5    9.998       8.952       7.903       6.856       5.814       4.763       3.583       2.390       1.198      2.6299E-03
   6    9.998       8.955       7.910       6.874       5.872       4.938       3.641       2.409       1.204      2.6429E-03
   7    9.998       8.953       7.904       6.857       5.815       4.764       3.584       2.391       1.199      2.6309E-03
   8    9.998       8.948       7.893       6.832       5.763       4.672       3.531       2.366       1.189      2.6098E-03
   9    9.998       8.945       7.883       6.813       5.730       4.628       3.498       2.347       1.181      2.5920E-03
  10    9.998       8.942       7.878       6.803       5.715       4.610       3.483       2.338       1.176      2.5825E-03
1
              HEAD IN LAYER   5 AT END OF TIME STEP  64 IN STRESS PERIOD    2
  ---------------------------------------------------------------------------

            1           2           3           4           5           6           7           8           9          10
 ........................................................................................................................
   1    9.998       8.937       7.868       6.787       5.694       4.587       3.463       2.323       1.169      2.5659E-03
   2    9.998       8.939       7.872       6.794       5.704       4.597       3.472       2.329       1.172      2.5726E-03
   3    9.998       8.943       7.880       6.808       5.724       4.621       3.492       2.342       1.178      2.5863E-03
   4    9.998       8.947       7.891       6.829       5.759       4.669       3.528       2.363       1.187      2.6065E-03
   5    9.998       8.952       7.903       6.855       5.813       4.760       3.582       2.389       1.198      2.6291E-03
   6    9.998       8.954       7.910       6.874       5.868       4.908       3.638       2.408       1.204      2.6421E-03
   7    9.998       8.952       7.904       6.856       5.815       4.761       3.583       2.390       1.198      2.6301E-03
   8    9.998       8.948       7.893       6.832       5.763       4.672       3.531       2.365       1.189      2.6090E-03
   9    9.998       8.944       7.883       6.813       5.730       4.628       3.498       2.347       1.180      2.5912E-03
  10    9.998       8.942       7.878       6.803       5.715       4.609       3.483       2.337       1.176      2.5817E-03

 HEAD WILL BE SAVED ON UNIT   51 AT END OF TIME STEP   64, STRESS PERIOD    2

 DRAWDOWN WILL BE SAVED ON UNIT   52 AT END OF TIME STEP   64, STRESS PERIOD    2
1
  VOLUMETRIC BUDGET FOR ENTIRE MODEL AT END OF TIME STEP   64, STRESS PERIOD   2
  ------------------------------------------------------------------------------

     CUMULATIVE VOLUMES      L**3       RATES FOR THIS TIME STEP      L**3/T
     ------------------                 ------------------------

           IN:                                      IN:
           ---                                      ---
             STORAGE =           0.0000               STORAGE =           0.0000
       CONSTANT HEAD =           0.0000         CONSTANT HEAD =           0.0000
               WELLS =        6400.0000                 WELLS =         100.0000
     HEAD DEP BOUNDS =       75365.4297       HEAD DEP BOUNDS =        1150.1479

            TOTAL IN =       81765.4297              TOTAL IN =        1250.1479

          OUT:                                     OUT:
          ----                                     ----
             STORAGE =        5231.0132               STORAGE =          59.3754
       CONSTANT HEAD =           0.0000         CONSTANT HEAD =           0.0000
               WELLS =           0.0000                 WELLS =           0.0000
     HEAD DEP BOUNDS =       76533.3984       HEAD DEP BOUNDS =        1190.7382

           TOTAL OUT =       81764.4141             TOTAL OUT =        1250.1136

            IN - OUT =           1.0156              IN - OUT =       3.4302E-02

 PERCENT DISCREPANCY =           0.00     PERCENT DISCREPANCY =           0.00






         TIME SUMMARY AT END OF TIME STEP   64 IN STRESS PERIOD    2
                    SECONDS     MINUTES      HOURS       DAYS        YEARS
                    -----------------------------------------------------------
   TIME STEP LENGTH  86400.      1440.0      24.000      1.0000     2.73785E-03
 STRESS PERIOD TIME 5.52960E+06  92160.      1536.0      64.000     0.17522    
         TOTAL TIME 5.61600E+06  93600.      1560.0      65.000     0.17796    
1
 
 SOLVING FOR HEAD 

 OUTPUT CONTROL FOR STRESS PERIOD    2   TIME STEP   65
    SAVE HEAD FOR ALL LAYERS
    SAVE DRAWDOWN FOR ALL LAYERS
    SAVE BUDGET
    PRINT HEAD FOR ALL LAYERS
    PRINT BUDGET
 UBDSV1 SAVING "         STORAGE" ON UNIT  53 AT TIME STEP 65, STRESS PERIOD   2
 UBDSV2 SAVING "   CONSTANT HEAD" ON UNIT  53 AT TIME STEP 65, STRESS PERIOD   2
 UBDSV1 SAVING "FLOW RIGHT FACE " ON UNIT  53 AT TIME STEP 65, STRESS PERIOD   2
 UBDSV1 SAVING "FLOW FRONT FACE " ON UNIT  53 AT TIME STEP 65, STRESS PERIOD   2
 UBDSV1 SAVING "FLOW LOWER FACE " ON UNIT  53 AT TIME STEP 65, STRESS PERIOD   2

 SAVING SATURATED THICKNESS AND FLOW TERMS ON UNIT   54 FOR MT3DMS
 BY THE LINK-MT3DMS PACKAGE V7 AT TIME STEP   65, STRESS PERIOD    2

1
              HEAD IN LAYER   1 AT END OF TIME STEP  65 IN STRESS PERIOD    2
  ---------------------------------------------------------------------------

            1           2           3           4           5           6           7           8           9          10
 ........................................................................................................................
   1    9.998       8.941       7.872       6.791       5.698       4.590       3.467       2.327       1.174      1.5301E-03
   2    9.998       8.943       7.876       6.797       5.707       4.600       3.475       2.333       1.177      1.5341E-03
   3    9.998       8.946       7.883       6.811       5.727       4.624       3.495       2.346       1.183      1.5424E-03
   4    9.998       8.951       7.894       6.831       5.762       4.672       3.531       2.367       1.192      1.5548E-03
   5    9.998       8.955       7.906       6.858       5.817       4.777       3.587       2.393       1.202      1.5686E-03
   6    9.998       8.957       7.912       6.877       5.884       5.073       3.657       2.413       1.208      1.5768E-03
   7    9.998       8.956       7.906       6.858       5.818       4.778       3.588       2.394       1.202      1.5692E-03
   8    9.998       8.952       7.896       6.834       5.765       4.675       3.533       2.369       1.193      1.5562E-03
   9    9.998       8.948       7.886       6.815       5.732       4.630       3.501       2.350       1.185      1.5452E-03
  10    9.998       8.946       7.881       6.806       5.717       4.612       3.486       2.341       1.180      1.5394E-03
1
              HEAD IN LAYER   2 AT END OF TIME STEP  65 IN STRESS PERIOD    2
  ---------------------------------------------------------------------------

            1           2           3           4           5           6           7           8           9          10
 ........................................................................................................................
   1    9.998       8.940       7.870       6.790       5.697       4.589       3.465       2.326       1.172      2.5169E-03
   2    9.998       8.941       7.874       6.796       5.706       4.599       3.474       2.332       1.175      2.5233E-03
   3    9.998       8.945       7.882       6.810       5.726       4.624       3.494       2.345       1.181      2.5366E-03
   4    9.998       8.949       7.893       6.831       5.761       4.672       3.530       2.366       1.190      2.5563E-03
   5    9.998       8.954       7.905       6.857       5.817       4.776       3.586       2.392       1.201      2.5784E-03
   6    9.998       8.956       7.911       6.876       5.883       5.113       3.655       2.412       1.207      2.5913E-03
   7    9.998       8.954       7.906       6.858       5.818       4.777       3.588       2.393       1.201      2.5794E-03
   8    9.998       8.950       7.895       6.833       5.764       4.675       3.533       2.368       1.191      2.5587E-03
   9    9.998       8.946       7.885       6.814       5.732       4.630       3.500       2.349       1.183      2.5413E-03
  10    9.998       8.944       7.880       6.805       5.717       4.611       3.485       2.340       1.179      2.5320E-03
1
              HEAD IN LAYER   3 AT END OF TIME STEP  65 IN STRESS PERIOD    2
  ---------------------------------------------------------------------------

            1           2           3           4           5           6           7           8           9          10
 ........................................................................................................................
   1    9.998       8.939       7.869       6.789       5.696       4.588       3.464       2.325       1.170      2.5671E-03
   2    9.998       8.940       7.873       6.795       5.705       4.599       3.473       2.331       1.173      2.5737E-03
   3    9.998       8.944       7.881       6.809       5.725       4.623       3.494       2.344       1.180      2.5874E-03
   4    9.998       8.948       7.892       6.830       5.761       4.671       3.529       2.365       1.189      2.6077E-03
   5    9.998       8.953       7.904       6.857       5.816       4.770       3.585       2.391       1.199      2.6303E-03
   6    9.998       8.955       7.911       6.876       5.878       5.003       3.648       2.410       1.205      2.6434E-03
   7    9.998       8.953       7.905       6.858       5.817       4.771       3.586       2.392       1.200      2.6313E-03
   8    9.998       8.949       7.894       6.833       5.764       4.674       3.532       2.367       1.190      2.6101E-03
   9    9.998       8.945       7.884       6.814       5.731       4.629       3.499       2.348       1.182      2.5923E-03
  10    9.998       8.943       7.879       6.804       5.716       4.611       3.484       2.339       1.178      2.5828E-03
1
              HEAD IN LAYER   4 AT END OF TIME STEP  65 IN STRESS PERIOD    2
  ---------------------------------------------------------------------------

            1           2           3           4           5           6           7           8           9          10
 ........................................................................................................................
   1    9.998       8.938       7.869       6.788       5.695       4.588       3.464       2.324       1.170      2.5673E-03
   2    9.998       8.940       7.873       6.795       5.704       4.598       3.473       2.330       1.173      2.5740E-03
   3    9.998       8.943       7.880       6.809       5.725       4.622       3.493       2.343       1.179      2.5877E-03
   4    9.998       8.948       7.892       6.830       5.761       4.670       3.529       2.364       1.188      2.6081E-03
   5    9.998       8.953       7.904       6.856       5.815       4.764       3.584       2.391       1.198      2.6308E-03
   6    9.998       8.955       7.910       6.875       5.873       4.939       3.642       2.409       1.204      2.6438E-03
   7    9.998       8.953       7.904       6.858       5.816       4.765       3.585       2.391       1.199      2.6318E-03
   8    9.998       8.949       7.893       6.833       5.764       4.674       3.532       2.366       1.189      2.6106E-03
   9    9.998       8.945       7.884       6.814       5.731       4.629       3.499       2.348       1.181      2.5928E-03
  10    9.998       8.943       7.879       6.804       5.716       4.610       3.484       2.338       1.177      2.5832E-03
1
              HEAD IN LAYER   5 AT END OF TIME STEP  65 IN STRESS PERIOD    2
  ---------------------------------------------------------------------------

            1           2           3           4           5           6           7           8           9          10
 ........................................................................................................................
   1    9.998       8.938       7.868       6.788       5.695       4.587       3.463       2.323       1.169      2.5664E-03
   2    9.998       8.939       7.872       6.795       5.704       4.598       3.472       2.330       1.172      2.5731E-03
   3    9.998       8.943       7.880       6.808       5.725       4.622       3.493       2.343       1.178      2.5869E-03
   4    9.998       8.948       7.891       6.830       5.760       4.670       3.529       2.364       1.188      2.6073E-03
   5    9.998       8.952       7.904       6.856       5.814       4.761       3.583       2.390       1.198      2.6300E-03
   6    9.998       8.955       7.910       6.875       5.869       4.910       3.639       2.409       1.204      2.6430E-03
   7    9.998       8.953       7.904       6.857       5.816       4.762       3.584       2.391       1.199      2.6310E-03
   8    9.998       8.948       7.893       6.832       5.764       4.673       3.532       2.366       1.189      2.6099E-03
   9    9.998       8.945       7.884       6.813       5.731       4.629       3.499       2.347       1.181      2.5920E-03
  10    9.998       8.942       7.878       6.804       5.716       4.610       3.484       2.338       1.176      2.5824E-03

 HEAD WILL BE SAVED ON UNIT   51 AT END OF TIME STEP   65, STRESS PERIOD    2

 DRAWDOWN WILL BE SAVED ON UNIT   52 AT END OF TIME STEP   65, STRESS PERIOD    2
1
  VOLUMETRIC BUDGET FOR ENTIRE MODEL AT END OF TIME STEP   65, STRESS PERIOD   2
  ------------------------------------------------------------------------------

     CUMULATIVE VOLUMES      L**3       RATES FOR THIS TIME STEP      L**3/T
     ------------------                 ------------------------

           IN:                                      IN:
           ---                                      ---
             STORAGE =           0.0000               STORAGE =           0.0000
       CONSTANT HEAD =           0.0000         CONSTANT HEAD =           0.0000
               WELLS =        6500.0000                 WELLS =         100.0000
     HEAD DEP BOUNDS =       76515.2891       HEAD DEP BOUNDS =        1149.8578

            TOTAL IN =       83015.2891              TOTAL IN =        1249.8578

          OUT:                                     OUT:
          ----                                     ----
             STORAGE =        5289.7363               STORAGE =          58.7229
       CONSTANT HEAD =           0.0000         CONSTANT HEAD =           0.0000
               WELLS =           0.0000                 WELLS =           0.0000
     HEAD DEP BOUNDS =       77724.4922       HEAD DEP BOUNDS =        1191.0942

           TOTAL OUT =       83014.2266             TOTAL OUT =        1249.8171

            IN - OUT =           1.0625              IN - OUT =       4.0649E-02

 PERCENT DISCREPANCY =           0.00     PERCENT DISCREPANCY =           0.00






         TIME SUMMARY AT END OF TIME STEP   65 IN STRESS PERIOD    2
                    SECONDS     MINUTES      HOURS       DAYS        YEARS
                    -----------------------------------------------------------
   TIME STEP LENGTH  86400.      1440.0      24.000      1.0000     2.73785E-03
 STRESS PERIOD TIME 5.61600E+06  93600.      1560.0      65.000     0.17796    
         TOTAL TIME 5.70240E+06  95040.      1584.0      66.000     0.18070    
1
 
 SOLVING FOR HEAD 

 OUTPUT CONTROL FOR STRESS PERIOD    2   TIME STEP   66
    SAVE HEAD FOR ALL LAYERS
    SAVE DRAWDOWN FOR ALL LAYERS
    SAVE BUDGET
    PRINT HEAD FOR ALL LAYERS
    PRINT BUDGET
 UBDSV1 SAVING "         STORAGE" ON UNIT  53 AT TIME STEP 66, STRESS PERIOD   2
 UBDSV2 SAVING "   CONSTANT HEAD" ON UNIT  53 AT TIME STEP 66, STRESS PERIOD   2
 UBDSV1 SAVING "FLOW RIGHT FACE " ON UNIT  53 AT TIME STEP 66, STRESS PERIOD   2
 UBDSV1 SAVING "FLOW FRONT FACE " ON UNIT  53 AT TIME STEP 66, STRESS PERIOD   2
 UBDSV1 SAVING "FLOW LOWER FACE " ON UNIT  53 AT TIME STEP 66, STRESS PERIOD   2

 SAVING SATURATED THICKNESS AND FLOW TERMS ON UNIT   54 FOR MT3DMS
 BY THE LINK-MT3DMS PACKAGE V7 AT TIME STEP   66, STRESS PERIOD    2

1
              HEAD IN LAYER   1 AT END OF TIME STEP  66 IN STRESS PERIOD    2
  ---------------------------------------------------------------------------

            1           2           3           4           5           6           7           8           9          10
 ........................................................................................................................
   1    9.998       8.941       7.872       6.792       5.698       4.591       3.467       2.328       1.174      1.5303E-03
   2    9.998       8.943       7.876       6.798       5.707       4.601       3.476       2.334       1.177      1.5345E-03
   3    9.998       8.947       7.884       6.811       5.727       4.625       3.496       2.347       1.183      1.5428E-03
   4    9.998       8.951       7.895       6.832       5.763       4.673       3.532       2.368       1.192      1.5552E-03
   5    9.998       8.956       7.906       6.858       5.818       4.778       3.588       2.394       1.202      1.5692E-03
   6    9.998       8.958       7.913       6.878       5.886       5.074       3.658       2.414       1.208      1.5773E-03
   7    9.998       8.956       7.907       6.859       5.819       4.780       3.590       2.395       1.203      1.5697E-03
   8    9.998       8.952       7.896       6.835       5.766       4.676       3.534       2.370       1.193      1.5567E-03
   9    9.998       8.948       7.887       6.816       5.733       4.631       3.502       2.351       1.185      1.5457E-03
  10    9.998       8.946       7.882       6.806       5.718       4.613       3.487       2.342       1.181      1.5399E-03
1
              HEAD IN LAYER   2 AT END OF TIME STEP  66 IN STRESS PERIOD    2
  ---------------------------------------------------------------------------

            1           2           3           4           5           6           7           8           9          10
 ........................................................................................................................
   1    9.998       8.940       7.871       6.790       5.697       4.590       3.466       2.326       1.172      2.5174E-03
   2    9.998       8.942       7.875       6.797       5.706       4.600       3.475       2.333       1.175      2.5239E-03
   3    9.998       8.945       7.882       6.810       5.727       4.624       3.495       2.346       1.181      2.5373E-03
   4    9.998       8.950       7.894       6.832       5.762       4.673       3.531       2.367       1.191      2.5571E-03
   5    9.998       8.954       7.905       6.858       5.818       4.777       3.587       2.393       1.201      2.5794E-03
   6    9.998       8.957       7.912       6.877       5.885       5.114       3.656       2.413       1.207      2.5923E-03
   7    9.998       8.955       7.906       6.859       5.819       4.778       3.589       2.394       1.201      2.5803E-03
   8    9.998       8.951       7.895       6.834       5.765       4.676       3.534       2.369       1.192      2.5595E-03
   9    9.998       8.947       7.886       6.815       5.733       4.631       3.501       2.350       1.184      2.5421E-03
  10    9.998       8.945       7.880       6.806       5.718       4.612       3.486       2.340       1.179      2.5327E-03
1
              HEAD IN LAYER   3 AT END OF TIME STEP  66 IN STRESS PERIOD    2
  ---------------------------------------------------------------------------

            1           2           3           4           5           6           7           8           9          10
 ........................................................................................................................
   1    9.998       8.939       7.870       6.789       5.696       4.589       3.465       2.325       1.171      2.5676E-03
   2    9.998       8.941       7.874       6.796       5.706       4.599       3.474       2.331       1.174      2.5743E-03
   3    9.998       8.944       7.882       6.810       5.726       4.624       3.494       2.345       1.180      2.5881E-03
   4    9.998       8.949       7.893       6.831       5.762       4.672       3.530       2.366       1.189      2.6084E-03
   5    9.998       8.953       7.905       6.858       5.817       4.771       3.586       2.392       1.200      2.6312E-03
   6    9.998       8.956       7.912       6.877       5.879       5.004       3.649       2.411       1.206      2.6443E-03
   7    9.998       8.954       7.906       6.859       5.818       4.772       3.587       2.393       1.200      2.6322E-03
   8    9.998       8.950       7.895       6.834       5.765       4.675       3.533       2.368       1.190      2.6110E-03
   9    9.998       8.946       7.885       6.815       5.732       4.630       3.500       2.349       1.182      2.5931E-03
  10    9.998       8.943       7.880       6.805       5.717       4.612       3.485       2.339       1.178      2.5836E-03
1
              HEAD IN LAYER   4 AT END OF TIME STEP  66 IN STRESS PERIOD    2
  ---------------------------------------------------------------------------

            1           2           3           4           5           6           7           8           9          10
 ........................................................................................................................
   1    9.998       8.938       7.869       6.789       5.696       4.588       3.464       2.324       1.170      2.5678E-03
   2    9.998       8.940       7.873       6.795       5.705       4.599       3.473       2.331       1.173      2.5745E-03
   3    9.998       8.943       7.881       6.809       5.726       4.623       3.494       2.344       1.179      2.5884E-03
   4    9.998       8.948       7.892       6.831       5.761       4.671       3.530       2.365       1.188      2.6089E-03
   5    9.998       8.953       7.904       6.857       5.816       4.765       3.585       2.391       1.199      2.6316E-03
   6    9.998       8.955       7.911       6.876       5.874       4.940       3.643       2.410       1.205      2.6448E-03
   7    9.998       8.953       7.905       6.858       5.817       4.767       3.586       2.392       1.199      2.6327E-03
   8    9.998       8.949       7.894       6.833       5.765       4.675       3.533       2.367       1.190      2.6115E-03
   9    9.998       8.945       7.884       6.814       5.732       4.630       3.500       2.348       1.182      2.5936E-03
  10    9.998       8.943       7.879       6.805       5.717       4.611       3.485       2.339       1.177      2.5840E-03
1
              HEAD IN LAYER   5 AT END OF TIME STEP  66 IN STRESS PERIOD    2
  ---------------------------------------------------------------------------

            1           2           3           4           5           6           7           8           9          10
 ........................................................................................................................
   1    9.998       8.938       7.869       6.788       5.696       4.588       3.464       2.324       1.169      2.5669E-03
   2    9.998       8.940       7.873       6.795       5.705       4.598       3.473       2.330       1.172      2.5736E-03
   3    9.998       8.943       7.881       6.809       5.725       4.623       3.493       2.343       1.179      2.5876E-03
   4    9.998       8.948       7.892       6.831       5.761       4.671       3.529       2.365       1.188      2.6081E-03
   5    9.998       8.953       7.904       6.857       5.815       4.762       3.584       2.391       1.198      2.6309E-03
   6    9.998       8.955       7.911       6.876       5.871       4.911       3.640       2.410       1.204      2.6439E-03
   7    9.998       8.953       7.905       6.858       5.817       4.763       3.585       2.392       1.199      2.6320E-03
   8    9.998       8.949       7.894       6.833       5.765       4.674       3.532       2.367       1.189      2.6107E-03
   9    9.998       8.945       7.884       6.814       5.732       4.630       3.500       2.348       1.181      2.5928E-03
  10    9.998       8.943       7.879       6.804       5.717       4.611       3.484       2.338       1.177      2.5832E-03

 HEAD WILL BE SAVED ON UNIT   51 AT END OF TIME STEP   66, STRESS PERIOD    2

 DRAWDOWN WILL BE SAVED ON UNIT   52 AT END OF TIME STEP   66, STRESS PERIOD    2
1
  VOLUMETRIC BUDGET FOR ENTIRE MODEL AT END OF TIME STEP   66, STRESS PERIOD   2
  ------------------------------------------------------------------------------

     CUMULATIVE VOLUMES      L**3       RATES FOR THIS TIME STEP      L**3/T
     ------------------                 ------------------------

           IN:                                      IN:
           ---                                      ---
             STORAGE =           0.0000               STORAGE =           0.0000
       CONSTANT HEAD =           0.0000         CONSTANT HEAD =           0.0000
               WELLS =        6600.0000                 WELLS =         100.0000
     HEAD DEP BOUNDS =       77664.8594       HEAD DEP BOUNDS =        1149.5697

            TOTAL IN =       84264.8594              TOTAL IN =        1249.5697

          OUT:                                     OUT:
          ----                                     ----
             STORAGE =        5347.8198               STORAGE =          58.0836
       CONSTANT HEAD =           0.0000         CONSTANT HEAD =           0.0000
               WELLS =           0.0000                 WELLS =           0.0000
     HEAD DEP BOUNDS =       78915.9375       HEAD DEP BOUNDS =        1191.4436

           TOTAL OUT =       84263.7578             TOTAL OUT =        1249.5272

            IN - OUT =           1.1016              IN - OUT =       4.2480E-02

 PERCENT DISCREPANCY =           0.00     PERCENT DISCREPANCY =           0.00






         TIME SUMMARY AT END OF TIME STEP   66 IN STRESS PERIOD    2
                    SECONDS     MINUTES      HOURS       DAYS        YEARS
                    -----------------------------------------------------------
   TIME STEP LENGTH  86400.      1440.0      24.000      1.0000     2.73785E-03
 STRESS PERIOD TIME 5.70240E+06  95040.      1584.0      66.000     0.18070    
         TOTAL TIME 5.78880E+06  96480.      1608.0      67.000     0.18344    
1
 
 SOLVING FOR HEAD 

 OUTPUT CONTROL FOR STRESS PERIOD    2   TIME STEP   67
    SAVE HEAD FOR ALL LAYERS
    SAVE DRAWDOWN FOR ALL LAYERS
    SAVE BUDGET
    PRINT HEAD FOR ALL LAYERS
    PRINT BUDGET
 UBDSV1 SAVING "         STORAGE" ON UNIT  53 AT TIME STEP 67, STRESS PERIOD   2
 UBDSV2 SAVING "   CONSTANT HEAD" ON UNIT  53 AT TIME STEP 67, STRESS PERIOD   2
 UBDSV1 SAVING "FLOW RIGHT FACE " ON UNIT  53 AT TIME STEP 67, STRESS PERIOD   2
 UBDSV1 SAVING "FLOW FRONT FACE " ON UNIT  53 AT TIME STEP 67, STRESS PERIOD   2
 UBDSV1 SAVING "FLOW LOWER FACE " ON UNIT  53 AT TIME STEP 67, STRESS PERIOD   2

 SAVING SATURATED THICKNESS AND FLOW TERMS ON UNIT   54 FOR MT3DMS
 BY THE LINK-MT3DMS PACKAGE V7 AT TIME STEP   67, STRESS PERIOD    2

1
              HEAD IN LAYER   1 AT END OF TIME STEP  67 IN STRESS PERIOD    2
  ---------------------------------------------------------------------------

            1           2           3           4           5           6           7           8           9          10
 ........................................................................................................................
   1    9.998       8.942       7.873       6.792       5.699       4.591       3.468       2.328       1.174      1.5307E-03
   2    9.998       8.943       7.876       6.798       5.708       4.602       3.477       2.334       1.177      1.5348E-03
   3    9.998       8.947       7.884       6.812       5.728       4.626       3.497       2.347       1.183      1.5432E-03
   4    9.998       8.951       7.895       6.833       5.764       4.674       3.533       2.368       1.192      1.5558E-03
   5    9.998       8.956       7.907       6.859       5.819       4.780       3.589       2.395       1.203      1.5697E-03
   6    9.998       8.958       7.914       6.879       5.887       5.076       3.659       2.415       1.209      1.5780E-03
   7    9.998       8.956       7.908       6.860       5.821       4.781       3.591       2.396       1.203      1.5704E-03
   8    9.998       8.952       7.897       6.835       5.767       4.677       3.535       2.370       1.194      1.5572E-03
   9    9.998       8.948       7.887       6.817       5.734       4.632       3.502       2.352       1.185      1.5462E-03
  10    9.998       8.946       7.882       6.807       5.719       4.614       3.487       2.342       1.181      1.5404E-03
1
              HEAD IN LAYER   2 AT END OF TIME STEP  67 IN STRESS PERIOD    2
  ---------------------------------------------------------------------------

            1           2           3           4           5           6           7           8           9          10
 ........................................................................................................................
   1    9.998       8.940       7.871       6.791       5.698       4.590       3.466       2.327       1.172      2.5179E-03
   2    9.998       8.942       7.875       6.797       5.707       4.601       3.475       2.333       1.175      2.5244E-03
   3    9.998       8.945       7.883       6.811       5.727       4.625       3.496       2.346       1.182      2.5379E-03
   4    9.998       8.950       7.894       6.832       5.763       4.674       3.532       2.367       1.191      2.5579E-03
   5    9.998       8.955       7.906       6.859       5.819       4.778       3.588       2.394       1.201      2.5802E-03
   6    9.998       8.957       7.913       6.878       5.886       5.115       3.657       2.413       1.207      2.5932E-03
   7    9.998       8.955       7.907       6.860       5.820       4.779       3.590       2.395       1.202      2.5813E-03
   8    9.998       8.951       7.896       6.835       5.766       4.677       3.535       2.369       1.192      2.5604E-03
   9    9.998       8.947       7.886       6.816       5.734       4.632       3.502       2.351       1.184      2.5428E-03
  10    9.998       8.945       7.881       6.806       5.718       4.613       3.487       2.341       1.180      2.5335E-03
1
              HEAD IN LAYER   3 AT END OF TIME STEP  67 IN STRESS PERIOD    2
  ---------------------------------------------------------------------------

            1           2           3           4           5           6           7           8           9          10
 ........................................................................................................................
   1    9.998       8.939       7.870       6.790       5.697       4.589       3.465       2.326       1.171      2.5681E-03
   2    9.998       8.941       7.874       6.796       5.706       4.600       3.475       2.332       1.174      2.5748E-03
   3    9.998       8.944       7.882       6.810       5.727       4.624       3.495       2.345       1.180      2.5887E-03
   4    9.998       8.949       7.893       6.832       5.763       4.673       3.531       2.366       1.190      2.6092E-03
   5    9.998       8.954       7.905       6.858       5.818       4.772       3.587       2.393       1.200      2.6320E-03
   6    9.998       8.956       7.912       6.878       5.880       5.005       3.650       2.412       1.206      2.6452E-03
   7    9.998       8.954       7.906       6.860       5.819       4.773       3.588       2.394       1.201      2.6331E-03
   8    9.998       8.950       7.895       6.835       5.766       4.676       3.534       2.368       1.191      2.6118E-03
   9    9.998       8.946       7.885       6.815       5.733       4.631       3.501       2.350       1.183      2.5939E-03
  10    9.998       8.944       7.880       6.806       5.718       4.613       3.486       2.340       1.178      2.5843E-03
1
              HEAD IN LAYER   4 AT END OF TIME STEP  67 IN STRESS PERIOD    2
  ---------------------------------------------------------------------------

            1           2           3           4           5           6           7           8           9          10
 ........................................................................................................................
   1    9.998       8.938       7.869       6.789       5.696       4.589       3.465       2.325       1.170      2.5683E-03
   2    9.998       8.940       7.873       6.796       5.706       4.599       3.474       2.331       1.173      2.5751E-03
   3    9.998       8.944       7.881       6.810       5.726       4.624       3.494       2.344       1.179      2.5890E-03
   4    9.998       8.948       7.893       6.832       5.762       4.672       3.531       2.366       1.189      2.6096E-03
   5    9.998       8.953       7.905       6.858       5.817       4.766       3.586       2.392       1.199      2.6325E-03
   6    9.998       8.955       7.912       6.877       5.875       4.941       3.644       2.411       1.205      2.6457E-03
   7    9.998       8.954       7.906       6.859       5.818       4.768       3.587       2.393       1.200      2.6336E-03
   8    9.998       8.949       7.895       6.834       5.766       4.676       3.534       2.368       1.190      2.6123E-03
   9    9.998       8.945       7.885       6.815       5.733       4.631       3.501       2.349       1.182      2.5943E-03
  10    9.998       8.943       7.880       6.805       5.718       4.612       3.485       2.339       1.177      2.5847E-03
1
              HEAD IN LAYER   5 AT END OF TIME STEP  67 IN STRESS PERIOD    2
  ---------------------------------------------------------------------------

            1           2           3           4           5           6           7           8           9          10
 ........................................................................................................................
   1    9.998       8.938       7.869       6.789       5.696       4.588       3.464       2.324       1.170      2.5674E-03
   2    9.998       8.940       7.873       6.796       5.705       4.599       3.474       2.331       1.173      2.5742E-03
   3    9.998       8.943       7.881       6.810       5.726       4.624       3.494       2.344       1.179      2.5882E-03
   4    9.998       8.948       7.893       6.831       5.762       4.672       3.530       2.365       1.188      2.6088E-03
   5    9.998       8.953       7.905       6.858       5.816       4.763       3.585       2.392       1.199      2.6317E-03
   6    9.998       8.955       7.911       6.877       5.872       4.912       3.641       2.410       1.205      2.6448E-03
   7    9.998       8.953       7.906       6.859       5.818       4.764       3.586       2.393       1.199      2.6328E-03
   8    9.998       8.949       7.894       6.834       5.765       4.675       3.533       2.368       1.190      2.6116E-03
   9    9.998       8.945       7.885       6.815       5.733       4.631       3.500       2.349       1.181      2.5935E-03
  10    9.998       8.943       7.879       6.805       5.717       4.612       3.485       2.339       1.177      2.5839E-03

 HEAD WILL BE SAVED ON UNIT   51 AT END OF TIME STEP   67, STRESS PERIOD    2

 DRAWDOWN WILL BE SAVED ON UNIT   52 AT END OF TIME STEP   67, STRESS PERIOD    2
1
  VOLUMETRIC BUDGET FOR ENTIRE MODEL AT END OF TIME STEP   67, STRESS PERIOD   2
  ------------------------------------------------------------------------------

     CUMULATIVE VOLUMES      L**3       RATES FOR THIS TIME STEP      L**3/T
     ------------------                 ------------------------

           IN:                                      IN:
           ---                                      ---
             STORAGE =           0.0000               STORAGE =           0.0000
       CONSTANT HEAD =           0.0000         CONSTANT HEAD =           0.0000
               WELLS =        6700.0000                 WELLS =         100.0000
     HEAD DEP BOUNDS =       78814.1328       HEAD DEP BOUNDS =        1149.2766

            TOTAL IN =       85514.1328              TOTAL IN =        1249.2766

          OUT:                                     OUT:
          ----                                     ----
             STORAGE =        5405.2607               STORAGE =          57.4412
       CONSTANT HEAD =           0.0000         CONSTANT HEAD =           0.0000
               WELLS =           0.0000                 WELLS =           0.0000
     HEAD DEP BOUNDS =       80107.7266       HEAD DEP BOUNDS =        1191.7926

           TOTAL OUT =       85512.9844             TOTAL OUT =        1249.2338

            IN - OUT =           1.1484              IN - OUT =       4.2847E-02

 PERCENT DISCREPANCY =           0.00     PERCENT DISCREPANCY =           0.00






         TIME SUMMARY AT END OF TIME STEP   67 IN STRESS PERIOD    2
                    SECONDS     MINUTES      HOURS       DAYS        YEARS
                    -----------------------------------------------------------
   TIME STEP LENGTH  86400.      1440.0      24.000      1.0000     2.73785E-03
 STRESS PERIOD TIME 5.78880E+06  96480.      1608.0      67.000     0.18344    
         TOTAL TIME 5.87520E+06  97920.      1632.0      68.000     0.18617    
1
 
 SOLVING FOR HEAD 

 OUTPUT CONTROL FOR STRESS PERIOD    2   TIME STEP   68
    SAVE HEAD FOR ALL LAYERS
    SAVE DRAWDOWN FOR ALL LAYERS
    SAVE BUDGET
    PRINT HEAD FOR ALL LAYERS
    PRINT BUDGET
 UBDSV1 SAVING "         STORAGE" ON UNIT  53 AT TIME STEP 68, STRESS PERIOD   2
 UBDSV2 SAVING "   CONSTANT HEAD" ON UNIT  53 AT TIME STEP 68, STRESS PERIOD   2
 UBDSV1 SAVING "FLOW RIGHT FACE " ON UNIT  53 AT TIME STEP 68, STRESS PERIOD   2
 UBDSV1 SAVING "FLOW FRONT FACE " ON UNIT  53 AT TIME STEP 68, STRESS PERIOD   2
 UBDSV1 SAVING "FLOW LOWER FACE " ON UNIT  53 AT TIME STEP 68, STRESS PERIOD   2

 SAVING SATURATED THICKNESS AND FLOW TERMS ON UNIT   54 FOR MT3DMS
 BY THE LINK-MT3DMS PACKAGE V7 AT TIME STEP   68, STRESS PERIOD    2

1
              HEAD IN LAYER   1 AT END OF TIME STEP  68 IN STRESS PERIOD    2
  ---------------------------------------------------------------------------

            1           2           3           4           5           6           7           8           9          10
 ........................................................................................................................
   1    9.998       8.942       7.873       6.793       5.700       4.592       3.468       2.329       1.174      1.5310E-03
   2    9.998       8.944       7.877       6.799       5.709       4.602       3.477       2.335       1.177      1.5351E-03
   3    9.998       8.947       7.885       6.813       5.729       4.627       3.497       2.348       1.184      1.5436E-03
   4    9.998       8.952       7.896       6.834       5.765       4.675       3.534       2.369       1.193      1.5562E-03
   5    9.998       8.956       7.908       6.860       5.820       4.781       3.590       2.396       1.203      1.5703E-03
   6    9.998       8.958       7.914       6.879       5.888       5.077       3.660       2.415       1.209      1.5786E-03
   7    9.998       8.957       7.908       6.861       5.822       4.782       3.592       2.396       1.204      1.5710E-03
   8    9.998       8.952       7.897       6.836       5.768       4.679       3.536       2.371       1.194      1.5578E-03
   9    9.998       8.949       7.888       6.817       5.735       4.633       3.503       2.352       1.186      1.5467E-03
  10    9.998       8.946       7.883       6.808       5.720       4.615       3.488       2.343       1.181      1.5408E-03
1
              HEAD IN LAYER   2 AT END OF TIME STEP  68 IN STRESS PERIOD    2
  ---------------------------------------------------------------------------

            1           2           3           4           5           6           7           8           9          10
 ........................................................................................................................
   1    9.998       8.940       7.871       6.791       5.698       4.591       3.467       2.327       1.173      2.5183E-03
   2    9.998       8.942       7.875       6.798       5.708       4.601       3.476       2.333       1.176      2.5249E-03
   3    9.998       8.946       7.883       6.812       5.728       4.626       3.497       2.347       1.182      2.5386E-03
   4    9.998       8.950       7.895       6.833       5.764       4.675       3.533       2.368       1.191      2.5587E-03
   5    9.998       8.955       7.907       6.860       5.820       4.779       3.589       2.395       1.202      2.5811E-03
   6    9.998       8.957       7.913       6.879       5.887       5.116       3.658       2.414       1.208      2.5941E-03
   7    9.998       8.955       7.907       6.861       5.821       4.780       3.591       2.395       1.202      2.5822E-03
   8    9.998       8.951       7.896       6.836       5.767       4.678       3.536       2.370       1.193      2.5612E-03
   9    9.998       8.947       7.887       6.817       5.734       4.633       3.503       2.351       1.184      2.5436E-03
  10    9.998       8.945       7.881       6.807       5.719       4.614       3.487       2.342       1.180      2.5342E-03
1
              HEAD IN LAYER   3 AT END OF TIME STEP  68 IN STRESS PERIOD    2
  ---------------------------------------------------------------------------

            1           2           3           4           5           6           7           8           9          10
 ........................................................................................................................
   1    9.998       8.939       7.870       6.790       5.698       4.590       3.466       2.326       1.171      2.5686E-03
   2    9.998       8.941       7.874       6.797       5.707       4.601       3.475       2.332       1.174      2.5754E-03
   3    9.998       8.945       7.882       6.811       5.728       4.625       3.496       2.346       1.181      2.5894E-03
   4    9.998       8.949       7.894       6.833       5.764       4.674       3.532       2.367       1.190      2.6100E-03
   5    9.998       8.954       7.906       6.859       5.819       4.773       3.588       2.393       1.200      2.6329E-03
   6    9.998       8.956       7.913       6.878       5.881       5.006       3.651       2.413       1.207      2.6462E-03
   7    9.998       8.954       7.907       6.860       5.820       4.774       3.589       2.394       1.201      2.6340E-03
   8    9.998       8.950       7.896       6.835       5.767       4.677       3.535       2.369       1.191      2.6127E-03
   9    9.998       8.946       7.886       6.816       5.734       4.632       3.502       2.350       1.183      2.5947E-03
  10    9.998       8.944       7.881       6.806       5.719       4.613       3.487       2.341       1.179      2.5850E-03
1
              HEAD IN LAYER   4 AT END OF TIME STEP  68 IN STRESS PERIOD    2
  ---------------------------------------------------------------------------

            1           2           3           4           5           6           7           8           9          10
 ........................................................................................................................
   1    9.998       8.938       7.870       6.790       5.697       4.589       3.465       2.325       1.170      2.5687E-03
   2    9.998       8.940       7.874       6.796       5.706       4.600       3.474       2.331       1.173      2.5756E-03
   3    9.998       8.944       7.882       6.810       5.727       4.625       3.495       2.345       1.180      2.5897E-03
   4    9.998       8.949       7.893       6.832       5.763       4.673       3.531       2.366       1.189      2.6104E-03
   5    9.998       8.953       7.906       6.859       5.818       4.767       3.587       2.393       1.200      2.6334E-03
   6    9.998       8.956       7.912       6.878       5.876       4.942       3.645       2.412       1.206      2.6466E-03
   7    9.998       8.954       7.906       6.860       5.819       4.769       3.588       2.394       1.200      2.6345E-03
   8    9.998       8.950       7.895       6.835       5.767       4.677       3.535       2.369       1.190      2.6132E-03
   9    9.998       8.946       7.885       6.816       5.734       4.632       3.501       2.350       1.182      2.5951E-03
  10    9.998       8.943       7.880       6.806       5.718       4.613       3.486       2.340       1.178      2.5854E-03
1
              HEAD IN LAYER   5 AT END OF TIME STEP  68 IN STRESS PERIOD    2
  ---------------------------------------------------------------------------

            1           2           3           4           5           6           7           8           9          10
 ........................................................................................................................
   1    9.998       8.938       7.869       6.789       5.697       4.589       3.465       2.325       1.170      2.5678E-03
   2    9.998       8.940       7.873       6.796       5.706       4.600       3.474       2.331       1.173      2.5747E-03
   3    9.998       8.944       7.882       6.810       5.727       4.625       3.495       2.345       1.179      2.5888E-03
   4    9.998       8.948       7.893       6.832       5.763       4.673       3.531       2.366       1.189      2.6096E-03
   5    9.998       8.953       7.905       6.859       5.817       4.764       3.586       2.392       1.199      2.6326E-03
   6    9.998       8.956       7.912       6.877       5.873       4.913       3.642       2.411       1.205      2.6457E-03
   7    9.998       8.954       7.906       6.860       5.819       4.765       3.587       2.393       1.200      2.6337E-03
   8    9.998       8.949       7.895       6.835       5.766       4.676       3.534       2.368       1.190      2.6124E-03
   9    9.998       8.945       7.885       6.816       5.734       4.632       3.501       2.349       1.182      2.5943E-03
  10    9.998       8.943       7.880       6.806       5.718       4.613       3.486       2.340       1.177      2.5846E-03

 HEAD WILL BE SAVED ON UNIT   51 AT END OF TIME STEP   68, STRESS PERIOD    2

 DRAWDOWN WILL BE SAVED ON UNIT   52 AT END OF TIME STEP   68, STRESS PERIOD    2
1
  VOLUMETRIC BUDGET FOR ENTIRE MODEL AT END OF TIME STEP   68, STRESS PERIOD   2
  ------------------------------------------------------------------------------

     CUMULATIVE VOLUMES      L**3       RATES FOR THIS TIME STEP      L**3/T
     ------------------                 ------------------------

           IN:                                      IN:
           ---                                      ---
             STORAGE =           0.0000               STORAGE =           0.0000
       CONSTANT HEAD =           0.0000         CONSTANT HEAD =           0.0000
               WELLS =        6800.0000                 WELLS =         100.0000
     HEAD DEP BOUNDS =       79963.1172       HEAD DEP BOUNDS =        1148.9856

            TOTAL IN =       86763.1172              TOTAL IN =        1248.9856

          OUT:                                     OUT:
          ----                                     ----
             STORAGE =        5462.0767               STORAGE =          56.8160
       CONSTANT HEAD =           0.0000         CONSTANT HEAD =           0.0000
               WELLS =           0.0000                 WELLS =           0.0000
     HEAD DEP BOUNDS =       81299.8594       HEAD DEP BOUNDS =        1192.1349

           TOTAL OUT =       86761.9375             TOTAL OUT =        1248.9509

            IN - OUT =           1.1797              IN - OUT =       3.4668E-02

 PERCENT DISCREPANCY =           0.00     PERCENT DISCREPANCY =           0.00






         TIME SUMMARY AT END OF TIME STEP   68 IN STRESS PERIOD    2
                    SECONDS     MINUTES      HOURS       DAYS        YEARS
                    -----------------------------------------------------------
   TIME STEP LENGTH  86400.      1440.0      24.000      1.0000     2.73785E-03
 STRESS PERIOD TIME 5.87520E+06  97920.      1632.0      68.000     0.18617    
         TOTAL TIME 5.96160E+06  99360.      1656.0      69.000     0.18891    
1
 
 SOLVING FOR HEAD 

 OUTPUT CONTROL FOR STRESS PERIOD    2   TIME STEP   69
    SAVE HEAD FOR ALL LAYERS
    SAVE DRAWDOWN FOR ALL LAYERS
    SAVE BUDGET
    PRINT HEAD FOR ALL LAYERS
    PRINT BUDGET
 UBDSV1 SAVING "         STORAGE" ON UNIT  53 AT TIME STEP 69, STRESS PERIOD   2
 UBDSV2 SAVING "   CONSTANT HEAD" ON UNIT  53 AT TIME STEP 69, STRESS PERIOD   2
 UBDSV1 SAVING "FLOW RIGHT FACE " ON UNIT  53 AT TIME STEP 69, STRESS PERIOD   2
 UBDSV1 SAVING "FLOW FRONT FACE " ON UNIT  53 AT TIME STEP 69, STRESS PERIOD   2
 UBDSV1 SAVING "FLOW LOWER FACE " ON UNIT  53 AT TIME STEP 69, STRESS PERIOD   2

 SAVING SATURATED THICKNESS AND FLOW TERMS ON UNIT   54 FOR MT3DMS
 BY THE LINK-MT3DMS PACKAGE V7 AT TIME STEP   69, STRESS PERIOD    2

1
              HEAD IN LAYER   1 AT END OF TIME STEP  69 IN STRESS PERIOD    2
  ---------------------------------------------------------------------------

            1           2           3           4           5           6           7           8           9          10
 ........................................................................................................................
   1    9.998       8.942       7.873       6.793       5.700       4.593       3.469       2.329       1.174      1.5312E-03
   2    9.998       8.944       7.877       6.800       5.709       4.603       3.478       2.335       1.178      1.5355E-03
   3    9.998       8.947       7.885       6.813       5.730       4.627       3.498       2.349       1.184      1.5441E-03
   4    9.998       8.952       7.896       6.835       5.765       4.676       3.534       2.370       1.193      1.5568E-03
   5    9.998       8.957       7.908       6.861       5.821       4.782       3.591       2.396       1.204      1.5709E-03
   6    9.998       8.959       7.915       6.880       5.889       5.078       3.661       2.416       1.210      1.5791E-03
   7    9.998       8.957       7.909       6.862       5.823       4.783       3.593       2.397       1.204      1.5715E-03
   8    9.998       8.953       7.898       6.837       5.769       4.680       3.537       2.372       1.194      1.5583E-03
   9    9.998       8.949       7.888       6.818       5.736       4.634       3.504       2.353       1.186      1.5472E-03
  10    9.998       8.947       7.883       6.809       5.721       4.615       3.489       2.343       1.182      1.5413E-03
1
              HEAD IN LAYER   2 AT END OF TIME STEP  69 IN STRESS PERIOD    2
  ---------------------------------------------------------------------------

            1           2           3           4           5           6           7           8           9          10
 ........................................................................................................................
   1    9.998       8.940       7.872       6.792       5.699       4.591       3.467       2.328       1.173      2.5188E-03
   2    9.998       8.942       7.876       6.798       5.708       4.602       3.477       2.334       1.176      2.5255E-03
   3    9.998       8.946       7.884       6.812       5.729       4.627       3.497       2.347       1.182      2.5392E-03
   4    9.998       8.951       7.895       6.834       5.765       4.676       3.534       2.369       1.192      2.5594E-03
   5    9.998       8.955       7.907       6.861       5.821       4.780       3.590       2.395       1.202      2.5820E-03
   6    9.998       8.958       7.914       6.880       5.888       5.117       3.659       2.415       1.208      2.5950E-03
   7    9.998       8.956       7.908       6.862       5.822       4.781       3.592       2.396       1.203      2.5831E-03
   8    9.998       8.951       7.897       6.837       5.768       4.679       3.537       2.371       1.193      2.5621E-03
   9    9.998       8.948       7.887       6.818       5.735       4.634       3.503       2.352       1.185      2.5444E-03
  10    9.998       8.945       7.882       6.808       5.720       4.615       3.488       2.342       1.180      2.5349E-03
1
              HEAD IN LAYER   3 AT END OF TIME STEP  69 IN STRESS PERIOD    2
  ---------------------------------------------------------------------------

            1           2           3           4           5           6           7           8           9          10
 ........................................................................................................................
   1    9.998       8.939       7.871       6.791       5.698       4.591       3.466       2.326       1.171      2.5690E-03
   2    9.998       8.941       7.875       6.798       5.708       4.601       3.476       2.333       1.174      2.5759E-03
   3    9.998       8.945       7.883       6.812       5.728       4.626       3.496       2.346       1.181      2.5900E-03
   4    9.998       8.950       7.894       6.833       5.764       4.675       3.533       2.367       1.190      2.6107E-03
   5    9.998       8.954       7.907       6.860       5.820       4.774       3.589       2.394       1.201      2.6338E-03
   6    9.998       8.957       7.913       6.879       5.882       5.007       3.652       2.414       1.207      2.6471E-03
   7    9.998       8.955       7.907       6.861       5.821       4.775       3.590       2.395       1.201      2.6349E-03
   8    9.998       8.951       7.896       6.836       5.768       4.678       3.536       2.370       1.192      2.6135E-03
   9    9.998       8.947       7.886       6.817       5.735       4.633       3.503       2.351       1.183      2.5954E-03
  10    9.998       8.944       7.881       6.807       5.720       4.614       3.487       2.341       1.179      2.5857E-03
1
              HEAD IN LAYER   4 AT END OF TIME STEP  69 IN STRESS PERIOD    2
  ---------------------------------------------------------------------------

            1           2           3           4           5           6           7           8           9          10
 ........................................................................................................................
   1    9.998       8.939       7.870       6.790       5.698       4.590       3.466       2.325       1.170      2.5692E-03
   2    9.998       8.940       7.874       6.797       5.707       4.601       3.475       2.332       1.174      2.5761E-03
   3    9.998       8.944       7.882       6.811       5.728       4.626       3.496       2.345       1.180      2.5903E-03
   4    9.998       8.949       7.894       6.833       5.764       4.674       3.532       2.367       1.190      2.6111E-03
   5    9.998       8.954       7.906       6.860       5.819       4.768       3.588       2.393       1.200      2.6342E-03
   6    9.998       8.956       7.913       6.879       5.877       4.943       3.646       2.412       1.206      2.6474E-03
   7    9.998       8.954       7.907       6.861       5.820       4.770       3.589       2.394       1.201      2.6354E-03
   8    9.998       8.950       7.896       6.836       5.768       4.678       3.535       2.369       1.191      2.6140E-03
   9    9.998       8.946       7.886       6.817       5.735       4.633       3.502       2.350       1.183      2.5958E-03
  10    9.998       8.944       7.881       6.807       5.719       4.614       3.487       2.341       1.178      2.5861E-03
1
              HEAD IN LAYER   5 AT END OF TIME STEP  69 IN STRESS PERIOD    2
  ---------------------------------------------------------------------------

            1           2           3           4           5           6           7           8           9          10
 ........................................................................................................................
   1    9.998       8.938       7.870       6.790       5.697       4.590       3.465       2.325       1.170      2.5683E-03
   2    9.998       8.940       7.874       6.797       5.707       4.600       3.475       2.331       1.173      2.5753E-03
   3    9.998       8.944       7.882       6.811       5.728       4.625       3.496       2.345       1.180      2.5895E-03
   4    9.998       8.949       7.894       6.833       5.764       4.674       3.532       2.366       1.189      2.6103E-03
   5    9.998       8.953       7.906       6.860       5.818       4.765       3.587       2.393       1.200      2.6334E-03
   6    9.998       8.956       7.913       6.878       5.874       4.914       3.643       2.412       1.206      2.6466E-03
   7    9.998       8.954       7.907       6.861       5.820       4.766       3.588       2.394       1.200      2.6346E-03
   8    9.998       8.950       7.896       6.836       5.767       4.677       3.535       2.369       1.190      2.6132E-03
   9    9.998       8.946       7.886       6.816       5.734       4.633       3.502       2.350       1.182      2.5950E-03
  10    9.998       8.943       7.880       6.806       5.719       4.614       3.487       2.340       1.178      2.5853E-03

 HEAD WILL BE SAVED ON UNIT   51 AT END OF TIME STEP   69, STRESS PERIOD    2

 DRAWDOWN WILL BE SAVED ON UNIT   52 AT END OF TIME STEP   69, STRESS PERIOD    2
1
  VOLUMETRIC BUDGET FOR ENTIRE MODEL AT END OF TIME STEP   69, STRESS PERIOD   2
  ------------------------------------------------------------------------------

     CUMULATIVE VOLUMES      L**3       RATES FOR THIS TIME STEP      L**3/T
     ------------------                 ------------------------

           IN:                                      IN:
           ---                                      ---
             STORAGE =           0.0000               STORAGE =           0.0000
       CONSTANT HEAD =           0.0000         CONSTANT HEAD =           0.0000
               WELLS =        6900.0000                 WELLS =         100.0000
     HEAD DEP BOUNDS =       81111.8125       HEAD DEP BOUNDS =        1148.6967

            TOTAL IN =       88011.8125              TOTAL IN =        1248.6967

          OUT:                                     OUT:
          ----                                     ----
             STORAGE =        5518.2686               STORAGE =          56.1920
       CONSTANT HEAD =           0.0000         CONSTANT HEAD =           0.0000
               WELLS =           0.0000                 WELLS =           0.0000
     HEAD DEP BOUNDS =       82492.3359       HEAD DEP BOUNDS =        1192.4749

           TOTAL OUT =       88010.6016             TOTAL OUT =        1248.6669

            IN - OUT =           1.2109              IN - OUT =       2.9785E-02

 PERCENT DISCREPANCY =           0.00     PERCENT DISCREPANCY =           0.00






         TIME SUMMARY AT END OF TIME STEP   69 IN STRESS PERIOD    2
                    SECONDS     MINUTES      HOURS       DAYS        YEARS
                    -----------------------------------------------------------
   TIME STEP LENGTH  86400.      1440.0      24.000      1.0000     2.73785E-03
 STRESS PERIOD TIME 5.96160E+06  99360.      1656.0      69.000     0.18891    
         TOTAL TIME 6.04800E+06 1.00800E+05  1680.0      70.000     0.19165    
1
 
 SOLVING FOR HEAD 

 OUTPUT CONTROL FOR STRESS PERIOD    2   TIME STEP   70
    SAVE HEAD FOR ALL LAYERS
    SAVE DRAWDOWN FOR ALL LAYERS
    SAVE BUDGET
    PRINT HEAD FOR ALL LAYERS
    PRINT BUDGET
 UBDSV1 SAVING "         STORAGE" ON UNIT  53 AT TIME STEP 70, STRESS PERIOD   2
 UBDSV2 SAVING "   CONSTANT HEAD" ON UNIT  53 AT TIME STEP 70, STRESS PERIOD   2
 UBDSV1 SAVING "FLOW RIGHT FACE " ON UNIT  53 AT TIME STEP 70, STRESS PERIOD   2
 UBDSV1 SAVING "FLOW FRONT FACE " ON UNIT  53 AT TIME STEP 70, STRESS PERIOD   2
 UBDSV1 SAVING "FLOW LOWER FACE " ON UNIT  53 AT TIME STEP 70, STRESS PERIOD   2

 SAVING SATURATED THICKNESS AND FLOW TERMS ON UNIT   54 FOR MT3DMS
 BY THE LINK-MT3DMS PACKAGE V7 AT TIME STEP   70, STRESS PERIOD    2

1
              HEAD IN LAYER   1 AT END OF TIME STEP  70 IN STRESS PERIOD    2
  ---------------------------------------------------------------------------

            1           2           3           4           5           6           7           8           9          10
 ........................................................................................................................
   1    9.998       8.942       7.874       6.794       5.701       4.593       3.469       2.329       1.175      1.5316E-03
   2    9.998       8.944       7.878       6.800       5.710       4.604       3.478       2.336       1.178      1.5358E-03
   3    9.998       8.947       7.885       6.814       5.730       4.628       3.499       2.349       1.184      1.5444E-03
   4    9.998       8.952       7.897       6.835       5.766       4.677       3.535       2.370       1.194      1.5572E-03
   5    9.998       8.957       7.909       6.862       5.822       4.783       3.592       2.397       1.204      1.5714E-03
   6    9.998       8.959       7.915       6.881       5.890       5.079       3.662       2.417       1.210      1.5798E-03
   7    9.998       8.957       7.909       6.863       5.824       4.784       3.594       2.398       1.205      1.5721E-03
   8    9.998       8.953       7.898       6.838       5.770       4.681       3.538       2.373       1.195      1.5589E-03
   9    9.998       8.949       7.889       6.819       5.737       4.635       3.505       2.354       1.187      1.5476E-03
  10    9.998       8.947       7.884       6.809       5.722       4.616       3.490       2.344       1.182      1.5417E-03
1
              HEAD IN LAYER   2 AT END OF TIME STEP  70 IN STRESS PERIOD    2
  ---------------------------------------------------------------------------

            1           2           3           4           5           6           7           8           9          10
 ........................................................................................................................
   1    9.998       8.941       7.872       6.792       5.700       4.592       3.468       2.328       1.173      2.5193E-03
   2    9.998       8.942       7.876       6.799       5.709       4.603       3.477       2.334       1.176      2.5260E-03
   3    9.998       8.946       7.884       6.813       5.730       4.628       3.498       2.348       1.183      2.5398E-03
   4    9.998       8.951       7.896       6.835       5.766       4.677       3.534       2.369       1.192      2.5602E-03
   5    9.998       8.956       7.908       6.861       5.822       4.781       3.591       2.396       1.203      2.5828E-03
   6    9.998       8.958       7.915       6.881       5.889       5.118       3.660       2.416       1.209      2.5959E-03
   7    9.998       8.956       7.909       6.863       5.823       4.782       3.593       2.397       1.203      2.5839E-03
   8    9.998       8.952       7.898       6.837       5.769       4.680       3.538       2.371       1.193      2.5629E-03
   9    9.998       8.948       7.888       6.818       5.736       4.634       3.504       2.352       1.185      2.5451E-03
  10    9.998       8.946       7.882       6.808       5.721       4.616       3.489       2.343       1.181      2.5356E-03
1
              HEAD IN LAYER   3 AT END OF TIME STEP  70 IN STRESS PERIOD    2
  ---------------------------------------------------------------------------

            1           2           3           4           5           6           7           8           9          10
 ........................................................................................................................
   1    9.998       8.939       7.871       6.791       5.699       4.591       3.467       2.327       1.172      2.5695E-03
   2    9.998       8.941       7.875       6.798       5.708       4.602       3.476       2.333       1.175      2.5764E-03
   3    9.998       8.945       7.883       6.812       5.729       4.627       3.497       2.347       1.181      2.5906E-03
   4    9.998       8.950       7.895       6.834       5.765       4.676       3.534       2.368       1.191      2.6115E-03
   5    9.998       8.955       7.907       6.861       5.821       4.775       3.590       2.395       1.201      2.6346E-03
   6    9.998       8.957       7.914       6.880       5.883       5.008       3.653       2.414       1.207      2.6479E-03
   7    9.998       8.955       7.908       6.862       5.822       4.776       3.591       2.396       1.202      2.6358E-03
   8    9.998       8.951       7.897       6.837       5.769       4.679       3.537       2.371       1.192      2.6143E-03
   9    9.998       8.947       7.887       6.818       5.736       4.634       3.504       2.351       1.184      2.5962E-03
  10    9.998       8.945       7.882       6.808       5.720       4.615       3.488       2.342       1.179      2.5864E-03
1
              HEAD IN LAYER   4 AT END OF TIME STEP  70 IN STRESS PERIOD    2
  ---------------------------------------------------------------------------

            1           2           3           4           5           6           7           8           9          10
 ........................................................................................................................
   1    9.998       8.939       7.870       6.791       5.698       4.590       3.466       2.326       1.171      2.5697E-03
   2    9.998       8.941       7.874       6.798       5.708       4.601       3.476       2.332       1.174      2.5767E-03
   3    9.998       8.944       7.883       6.812       5.729       4.626       3.497       2.346       1.180      2.5909E-03
   4    9.998       8.949       7.894       6.834       5.765       4.675       3.533       2.367       1.190      2.6119E-03
   5    9.998       8.954       7.907       6.861       5.820       4.769       3.589       2.394       1.200      2.6350E-03
   6    9.998       8.956       7.914       6.880       5.878       4.944       3.647       2.413       1.206      2.6483E-03
   7    9.998       8.954       7.908       6.862       5.821       4.771       3.590       2.395       1.201      2.6362E-03
   8    9.998       8.950       7.896       6.837       5.768       4.679       3.536       2.370       1.191      2.6148E-03
   9    9.998       8.946       7.886       6.817       5.735       4.634       3.503       2.351       1.183      2.5966E-03
  10    9.998       8.944       7.881       6.807       5.720       4.615       3.488       2.341       1.178      2.5868E-03
1
              HEAD IN LAYER   5 AT END OF TIME STEP  70 IN STRESS PERIOD    2
  ---------------------------------------------------------------------------

            1           2           3           4           5           6           7           8           9          10
 ........................................................................................................................
   1    9.998       8.938       7.870       6.790       5.698       4.590       3.466       2.325       1.170      2.5688E-03
   2    9.998       8.940       7.874       6.797       5.707       4.601       3.475       2.332       1.173      2.5758E-03
   3    9.998       8.944       7.882       6.811       5.728       4.626       3.496       2.346       1.180      2.5901E-03
   4    9.998       8.949       7.894       6.834       5.765       4.674       3.533       2.367       1.189      2.6111E-03
   5    9.998       8.954       7.906       6.860       5.819       4.766       3.588       2.394       1.200      2.6342E-03
   6    9.998       8.956       7.913       6.879       5.875       4.915       3.644       2.413       1.206      2.6475E-03
   7    9.998       8.954       7.907       6.862       5.821       4.767       3.589       2.395       1.201      2.6354E-03
   8    9.998       8.950       7.896       6.836       5.768       4.678       3.536       2.370       1.191      2.6140E-03
   9    9.998       8.946       7.886       6.817       5.735       4.633       3.503       2.350       1.182      2.5958E-03
  10    9.998       8.944       7.881       6.807       5.720       4.615       3.488       2.341       1.178      2.5860E-03

 HEAD WILL BE SAVED ON UNIT   51 AT END OF TIME STEP   70, STRESS PERIOD    2

 DRAWDOWN WILL BE SAVED ON UNIT   52 AT END OF TIME STEP   70, STRESS PERIOD    2
1
  VOLUMETRIC BUDGET FOR ENTIRE MODEL AT END OF TIME STEP   70, STRESS PERIOD   2
  ------------------------------------------------------------------------------

     CUMULATIVE VOLUMES      L**3       RATES FOR THIS TIME STEP      L**3/T
     ------------------                 ------------------------

           IN:                                      IN:
           ---                                      ---
             STORAGE =           0.0000               STORAGE =           0.0000
       CONSTANT HEAD =           0.0000         CONSTANT HEAD =           0.0000
               WELLS =        7000.0000                 WELLS =         100.0000
     HEAD DEP BOUNDS =       82260.2188       HEAD DEP BOUNDS =        1148.4100

            TOTAL IN =       89260.2188              TOTAL IN =        1248.4100

          OUT:                                     OUT:
          ----                                     ----
             STORAGE =        5573.8394               STORAGE =          55.5708
       CONSTANT HEAD =           0.0000         CONSTANT HEAD =           0.0000
               WELLS =           0.0000                 WELLS =           0.0000
     HEAD DEP BOUNDS =       83685.1484       HEAD DEP BOUNDS =        1192.8092

           TOTAL OUT =       89258.9844             TOTAL OUT =        1248.3800

            IN - OUT =           1.2344              IN - OUT =       3.0029E-02

 PERCENT DISCREPANCY =           0.00     PERCENT DISCREPANCY =           0.00






         TIME SUMMARY AT END OF TIME STEP   70 IN STRESS PERIOD    2
                    SECONDS     MINUTES      HOURS       DAYS        YEARS
                    -----------------------------------------------------------
   TIME STEP LENGTH  86400.      1440.0      24.000      1.0000     2.73785E-03
 STRESS PERIOD TIME 6.04800E+06 1.00800E+05  1680.0      70.000     0.19165    
         TOTAL TIME 6.13440E+06 1.02240E+05  1704.0      71.000     0.19439    
1
 
 SOLVING FOR HEAD 

 OUTPUT CONTROL FOR STRESS PERIOD    2   TIME STEP   71
    SAVE HEAD FOR ALL LAYERS
    SAVE DRAWDOWN FOR ALL LAYERS
    SAVE BUDGET
    PRINT HEAD FOR ALL LAYERS
    PRINT BUDGET
 UBDSV1 SAVING "         STORAGE" ON UNIT  53 AT TIME STEP 71, STRESS PERIOD   2
 UBDSV2 SAVING "   CONSTANT HEAD" ON UNIT  53 AT TIME STEP 71, STRESS PERIOD   2
 UBDSV1 SAVING "FLOW RIGHT FACE " ON UNIT  53 AT TIME STEP 71, STRESS PERIOD   2
 UBDSV1 SAVING "FLOW FRONT FACE " ON UNIT  53 AT TIME STEP 71, STRESS PERIOD   2
 UBDSV1 SAVING "FLOW LOWER FACE " ON UNIT  53 AT TIME STEP 71, STRESS PERIOD   2

 SAVING SATURATED THICKNESS AND FLOW TERMS ON UNIT   54 FOR MT3DMS
 BY THE LINK-MT3DMS PACKAGE V7 AT TIME STEP   71, STRESS PERIOD    2

1
              HEAD IN LAYER   1 AT END OF TIME STEP  71 IN STRESS PERIOD    2
  ---------------------------------------------------------------------------

            1           2           3           4           5           6           7           8           9          10
 ........................................................................................................................
   1    9.998       8.942       7.874       6.794       5.701       4.594       3.470       2.330       1.175      1.5319E-03
   2    9.998       8.944       7.878       6.801       5.711       4.604       3.479       2.336       1.178      1.5361E-03
   3    9.998       8.948       7.886       6.815       5.731       4.629       3.500       2.350       1.184      1.5448E-03
   4    9.998       8.952       7.897       6.836       5.767       4.678       3.536       2.371       1.194      1.5577E-03
   5    9.998       8.957       7.909       6.863       5.823       4.784       3.593       2.398       1.204      1.5720E-03
   6    9.998       8.959       7.916       6.882       5.891       5.080       3.663       2.418       1.211      1.5803E-03
   7    9.998       8.958       7.910       6.864       5.825       4.785       3.595       2.399       1.205      1.5726E-03
   8    9.998       8.953       7.899       6.839       5.771       4.682       3.539       2.373       1.195      1.5594E-03
   9    9.998       8.949       7.889       6.820       5.738       4.636       3.506       2.354       1.187      1.5482E-03
  10    9.998       8.947       7.884       6.810       5.722       4.617       3.491       2.345       1.182      1.5422E-03
1
              HEAD IN LAYER   2 AT END OF TIME STEP  71 IN STRESS PERIOD    2
  ---------------------------------------------------------------------------

            1           2           3           4           5           6           7           8           9          10
 ........................................................................................................................
   1    9.998       8.941       7.873       6.793       5.700       4.593       3.469       2.328       1.173      2.5198E-03
   2    9.998       8.943       7.877       6.800       5.710       4.603       3.478       2.335       1.176      2.5265E-03
   3    9.998       8.946       7.885       6.814       5.730       4.628       3.499       2.348       1.183      2.5405E-03
   4    9.998       8.951       7.896       6.835       5.767       4.677       3.535       2.370       1.192      2.5609E-03
   5    9.998       8.956       7.908       6.862       5.823       4.782       3.592       2.397       1.203      2.5836E-03
   6    9.998       8.958       7.915       6.882       5.890       5.119       3.661       2.416       1.209      2.5968E-03
   7    9.998       8.956       7.909       6.863       5.824       4.783       3.594       2.398       1.203      2.5848E-03
   8    9.998       8.952       7.898       6.838       5.770       4.681       3.538       2.372       1.194      2.5637E-03
   9    9.998       8.948       7.888       6.819       5.737       4.635       3.505       2.353       1.185      2.5459E-03
  10    9.998       8.946       7.883       6.809       5.722       4.617       3.490       2.343       1.181      2.5363E-03
1
              HEAD IN LAYER   3 AT END OF TIME STEP  71 IN STRESS PERIOD    2
  ---------------------------------------------------------------------------

            1           2           3           4           5           6           7           8           9          10
 ........................................................................................................................
   1    9.998       8.940       7.871       6.792       5.699       4.592       3.468       2.327       1.172      2.5700E-03
   2    9.998       8.942       7.876       6.799       5.709       4.602       3.477       2.334       1.175      2.5770E-03
   3    9.998       8.945       7.884       6.813       5.730       4.628       3.498       2.347       1.181      2.5913E-03
   4    9.998       8.950       7.895       6.835       5.766       4.677       3.534       2.369       1.191      2.6122E-03
   5    9.998       8.955       7.908       6.862       5.822       4.776       3.591       2.396       1.202      2.6354E-03
   6    9.998       8.957       7.915       6.881       5.884       5.009       3.654       2.415       1.208      2.6488E-03
   7    9.998       8.955       7.909       6.863       5.823       4.777       3.592       2.397       1.202      2.6366E-03
   8    9.998       8.951       7.897       6.838       5.770       4.680       3.538       2.371       1.192      2.6151E-03
   9    9.998       8.947       7.888       6.818       5.737       4.635       3.504       2.352       1.184      2.5969E-03
  10    9.998       8.945       7.882       6.809       5.721       4.616       3.489       2.342       1.180      2.5871E-03
1
              HEAD IN LAYER   4 AT END OF TIME STEP  71 IN STRESS PERIOD    2
  ---------------------------------------------------------------------------

            1           2           3           4           5           6           7           8           9          10
 ........................................................................................................................
   1    9.998       8.939       7.871       6.791       5.699       4.591       3.467       2.326       1.171      2.5702E-03
   2    9.998       8.941       7.875       6.798       5.708       4.602       3.476       2.333       1.174      2.5772E-03
   3    9.998       8.945       7.883       6.812       5.729       4.627       3.497       2.346       1.181      2.5916E-03
   4    9.998       8.949       7.895       6.834       5.766       4.676       3.534       2.368       1.190      2.6126E-03
   5    9.998       8.954       7.907       6.861       5.821       4.770       3.589       2.395       1.201      2.6358E-03
   6    9.998       8.957       7.914       6.880       5.879       4.945       3.648       2.414       1.207      2.6492E-03
   7    9.998       8.955       7.908       6.863       5.822       4.772       3.591       2.396       1.201      2.6371E-03
   8    9.998       8.951       7.897       6.837       5.769       4.680       3.537       2.371       1.192      2.6156E-03
   9    9.998       8.946       7.887       6.818       5.736       4.635       3.504       2.351       1.183      2.5973E-03
  10    9.998       8.944       7.882       6.808       5.721       4.616       3.489       2.342       1.179      2.5875E-03
1
              HEAD IN LAYER   5 AT END OF TIME STEP  71 IN STRESS PERIOD    2
  ---------------------------------------------------------------------------

            1           2           3           4           5           6           7           8           9          10
 ........................................................................................................................
   1    9.998       8.939       7.870       6.791       5.698       4.591       3.466       2.326       1.170      2.5693E-03
   2    9.998       8.941       7.875       6.798       5.708       4.602       3.476       2.332       1.174      2.5763E-03
   3    9.998       8.944       7.883       6.812       5.729       4.627       3.497       2.346       1.180      2.5907E-03
   4    9.998       8.949       7.895       6.834       5.766       4.675       3.534       2.368       1.190      2.6118E-03
   5    9.998       8.954       7.907       6.861       5.820       4.767       3.589       2.394       1.200      2.6350E-03
   6    9.998       8.956       7.914       6.880       5.876       4.916       3.645       2.413       1.206      2.6483E-03
   7    9.998       8.954       7.908       6.862       5.822       4.768       3.590       2.395       1.201      2.6363E-03
   8    9.998       8.950       7.897       6.837       5.769       4.679       3.537       2.370       1.191      2.6148E-03
   9    9.998       8.946       7.887       6.818       5.736       4.634       3.504       2.351       1.183      2.5965E-03
  10    9.998       8.944       7.881       6.808       5.721       4.615       3.488       2.341       1.178      2.5867E-03

 HEAD WILL BE SAVED ON UNIT   51 AT END OF TIME STEP   71, STRESS PERIOD    2

 DRAWDOWN WILL BE SAVED ON UNIT   52 AT END OF TIME STEP   71, STRESS PERIOD    2
1
  VOLUMETRIC BUDGET FOR ENTIRE MODEL AT END OF TIME STEP   71, STRESS PERIOD   2
  ------------------------------------------------------------------------------

     CUMULATIVE VOLUMES      L**3       RATES FOR THIS TIME STEP      L**3/T
     ------------------                 ------------------------

           IN:                                      IN:
           ---                                      ---
             STORAGE =           0.0000               STORAGE =           0.0000
       CONSTANT HEAD =           0.0000         CONSTANT HEAD =           0.0000
               WELLS =        7100.0000                 WELLS =         100.0000
     HEAD DEP BOUNDS =       83408.3438       HEAD DEP BOUNDS =        1148.1257

            TOTAL IN =       90508.3438              TOTAL IN =        1248.1257

          OUT:                                     OUT:
          ----                                     ----
             STORAGE =        5628.7876               STORAGE =          54.9480
       CONSTANT HEAD =           0.0000         CONSTANT HEAD =           0.0000
               WELLS =           0.0000                 WELLS =           0.0000
     HEAD DEP BOUNDS =       84878.2891       HEAD DEP BOUNDS =        1193.1405

           TOTAL OUT =       90507.0781             TOTAL OUT =        1248.0885

            IN - OUT =           1.2656              IN - OUT =       3.7231E-02

 PERCENT DISCREPANCY =           0.00     PERCENT DISCREPANCY =           0.00






         TIME SUMMARY AT END OF TIME STEP   71 IN STRESS PERIOD    2
                    SECONDS     MINUTES      HOURS       DAYS        YEARS
                    -----------------------------------------------------------
   TIME STEP LENGTH  86400.      1440.0      24.000      1.0000     2.73785E-03
 STRESS PERIOD TIME 6.13440E+06 1.02240E+05  1704.0      71.000     0.19439    
         TOTAL TIME 6.22080E+06 1.03680E+05  1728.0      72.000     0.19713    
1
 
 SOLVING FOR HEAD 

 OUTPUT CONTROL FOR STRESS PERIOD    2   TIME STEP   72
    SAVE HEAD FOR ALL LAYERS
    SAVE DRAWDOWN FOR ALL LAYERS
    SAVE BUDGET
    PRINT HEAD FOR ALL LAYERS
    PRINT BUDGET
 UBDSV1 SAVING "         STORAGE" ON UNIT  53 AT TIME STEP 72, STRESS PERIOD   2
 UBDSV2 SAVING "   CONSTANT HEAD" ON UNIT  53 AT TIME STEP 72, STRESS PERIOD   2
 UBDSV1 SAVING "FLOW RIGHT FACE " ON UNIT  53 AT TIME STEP 72, STRESS PERIOD   2
 UBDSV1 SAVING "FLOW FRONT FACE " ON UNIT  53 AT TIME STEP 72, STRESS PERIOD   2
 UBDSV1 SAVING "FLOW LOWER FACE " ON UNIT  53 AT TIME STEP 72, STRESS PERIOD   2

 SAVING SATURATED THICKNESS AND FLOW TERMS ON UNIT   54 FOR MT3DMS
 BY THE LINK-MT3DMS PACKAGE V7 AT TIME STEP   72, STRESS PERIOD    2

1
              HEAD IN LAYER   1 AT END OF TIME STEP  72 IN STRESS PERIOD    2
  ---------------------------------------------------------------------------

            1           2           3           4           5           6           7           8           9          10
 ........................................................................................................................
   1    9.998       8.943       7.874       6.794       5.702       4.594       3.470       2.330       1.175      1.5322E-03
   2    9.998       8.944       7.878       6.801       5.711       4.605       3.480       2.337       1.178      1.5365E-03
   3    9.998       8.948       7.886       6.815       5.732       4.630       3.500       2.350       1.185      1.5452E-03
   4    9.998       8.953       7.898       6.837       5.768       4.679       3.537       2.372       1.194      1.5582E-03
   5    9.998       8.957       7.910       6.864       5.824       4.785       3.594       2.399       1.205      1.5725E-03
   6    9.998       8.960       7.917       6.883       5.892       5.081       3.664       2.419       1.211      1.5809E-03
   7    9.998       8.958       7.911       6.865       5.826       4.786       3.596       2.400       1.205      1.5732E-03
   8    9.998       8.954       7.900       6.840       5.772       4.683       3.540       2.374       1.196      1.5599E-03
   9    9.998       8.950       7.890       6.820       5.738       4.637       3.507       2.355       1.187      1.5486E-03
  10    9.998       8.947       7.885       6.811       5.723       4.618       3.491       2.345       1.183      1.5426E-03
1
              HEAD IN LAYER   2 AT END OF TIME STEP  72 IN STRESS PERIOD    2
  ---------------------------------------------------------------------------

            1           2           3           4           5           6           7           8           9          10
 ........................................................................................................................
   1    9.998       8.941       7.873       6.793       5.701       4.593       3.469       2.329       1.173      2.5202E-03
   2    9.998       8.943       7.877       6.800       5.710       4.604       3.478       2.335       1.177      2.5271E-03
   3    9.998       8.946       7.885       6.814       5.731       4.629       3.499       2.349       1.183      2.5411E-03
   4    9.998       8.951       7.897       6.836       5.768       4.678       3.536       2.370       1.193      2.5617E-03
   5    9.998       8.956       7.909       6.863       5.824       4.783       3.593       2.397       1.203      2.5845E-03
   6    9.998       8.958       7.916       6.883       5.891       5.120       3.662       2.417       1.209      2.5977E-03
   7    9.998       8.957       7.910       6.864       5.825       4.785       3.595       2.398       1.204      2.5856E-03
   8    9.998       8.952       7.899       6.839       5.771       4.682       3.539       2.373       1.194      2.5645E-03
   9    9.998       8.948       7.889       6.820       5.738       4.636       3.506       2.354       1.186      2.5466E-03
  10    9.998       8.946       7.883       6.810       5.723       4.617       3.491       2.344       1.181      2.5370E-03
1
              HEAD IN LAYER   3 AT END OF TIME STEP  72 IN STRESS PERIOD    2
  ---------------------------------------------------------------------------

            1           2           3           4           5           6           7           8           9          10
 ........................................................................................................................
   1    9.998       8.940       7.872       6.792       5.700       4.592       3.468       2.328       1.172      2.5705E-03
   2    9.998       8.942       7.876       6.799       5.709       4.603       3.477       2.334       1.175      2.5775E-03
   3    9.998       8.945       7.884       6.813       5.730       4.628       3.498       2.348       1.182      2.5919E-03
   4    9.998       8.950       7.896       6.836       5.767       4.677       3.535       2.369       1.191      2.6130E-03
   5    9.998       8.955       7.908       6.863       5.823       4.777       3.592       2.396       1.202      2.6362E-03
   6    9.998       8.958       7.915       6.882       5.885       5.010       3.655       2.416       1.208      2.6497E-03
   7    9.998       8.956       7.909       6.864       5.824       4.779       3.593       2.397       1.203      2.6375E-03
   8    9.998       8.951       7.898       6.838       5.771       4.681       3.539       2.372       1.193      2.6159E-03
   9    9.998       8.947       7.888       6.819       5.737       4.636       3.505       2.353       1.184      2.5976E-03
  10    9.998       8.945       7.883       6.809       5.722       4.617       3.490       2.343       1.180      2.5878E-03
1
              HEAD IN LAYER   4 AT END OF TIME STEP  72 IN STRESS PERIOD    2
  ---------------------------------------------------------------------------

            1           2           3           4           5           6           7           8           9          10
 ........................................................................................................................
   1    9.998       8.939       7.871       6.792       5.699       4.592       3.467       2.327       1.171      2.5707E-03
   2    9.998       8.941       7.875       6.799       5.709       4.603       3.477       2.333       1.174      2.5777E-03
   3    9.998       8.945       7.884       6.813       5.730       4.628       3.498       2.347       1.181      2.5922E-03
   4    9.998       8.950       7.895       6.835       5.767       4.677       3.535       2.369       1.191      2.6133E-03
   5    9.998       8.955       7.908       6.862       5.822       4.771       3.590       2.395       1.201      2.6366E-03
   6    9.998       8.957       7.915       6.881       5.880       4.946       3.649       2.415       1.207      2.6500E-03
   7    9.998       8.955       7.909       6.863       5.823       4.773       3.592       2.397       1.202      2.6379E-03
   8    9.998       8.951       7.897       6.838       5.770       4.680       3.538       2.371       1.192      2.6164E-03
   9    9.998       8.947       7.888       6.819       5.737       4.635       3.505       2.352       1.184      2.5980E-03
  10    9.998       8.944       7.882       6.809       5.722       4.616       3.489       2.342       1.179      2.5882E-03
1
              HEAD IN LAYER   5 AT END OF TIME STEP  72 IN STRESS PERIOD    2
  ---------------------------------------------------------------------------

            1           2           3           4           5           6           7           8           9          10
 ........................................................................................................................
   1    9.998       8.939       7.871       6.791       5.699       4.591       3.467       2.326       1.171      2.5697E-03
   2    9.998       8.941       7.875       6.798       5.709       4.602       3.476       2.333       1.174      2.5768E-03
   3    9.998       8.944       7.883       6.813       5.730       4.628       3.498       2.347       1.180      2.5913E-03
   4    9.998       8.949       7.895       6.835       5.766       4.676       3.534       2.368       1.190      2.6125E-03
   5    9.998       8.954       7.908       6.862       5.821       4.768       3.590       2.395       1.201      2.6358E-03
   6    9.998       8.957       7.914       6.881       5.877       4.917       3.646       2.414       1.207      2.6491E-03
   7    9.998       8.955       7.908       6.863       5.823       4.769       3.591       2.396       1.201      2.6371E-03
   8    9.998       8.951       7.897       6.838       5.770       4.680       3.538       2.371       1.191      2.6156E-03
   9    9.998       8.946       7.887       6.819       5.737       4.635       3.504       2.352       1.183      2.5972E-03
  10    9.998       8.944       7.882       6.809       5.722       4.616       3.489       2.342       1.179      2.5874E-03

 HEAD WILL BE SAVED ON UNIT   51 AT END OF TIME STEP   72, STRESS PERIOD    2

 DRAWDOWN WILL BE SAVED ON UNIT   52 AT END OF TIME STEP   72, STRESS PERIOD    2
1
  VOLUMETRIC BUDGET FOR ENTIRE MODEL AT END OF TIME STEP   72, STRESS PERIOD   2
  ------------------------------------------------------------------------------

     CUMULATIVE VOLUMES      L**3       RATES FOR THIS TIME STEP      L**3/T
     ------------------                 ------------------------

           IN:                                      IN:
           ---                                      ---
             STORAGE =           0.0000               STORAGE =           0.0000
       CONSTANT HEAD =           0.0000         CONSTANT HEAD =           0.0000
               WELLS =        7200.0000                 WELLS =         100.0000
     HEAD DEP BOUNDS =       84556.1953       HEAD DEP BOUNDS =        1147.8507

            TOTAL IN =       91756.1953              TOTAL IN =        1247.8507

          OUT:                                     OUT:
          ----                                     ----
             STORAGE =        5683.1318               STORAGE =          54.3443
       CONSTANT HEAD =           0.0000         CONSTANT HEAD =           0.0000
               WELLS =           0.0000                 WELLS =           0.0000
     HEAD DEP BOUNDS =       86071.7578       HEAD DEP BOUNDS =        1193.4670

           TOTAL OUT =       91754.8906             TOTAL OUT =        1247.8113

            IN - OUT =           1.3047              IN - OUT =       3.9429E-02

 PERCENT DISCREPANCY =           0.00     PERCENT DISCREPANCY =           0.00






         TIME SUMMARY AT END OF TIME STEP   72 IN STRESS PERIOD    2
                    SECONDS     MINUTES      HOURS       DAYS        YEARS
                    -----------------------------------------------------------
   TIME STEP LENGTH  86400.      1440.0      24.000      1.0000     2.73785E-03
 STRESS PERIOD TIME 6.22080E+06 1.03680E+05  1728.0      72.000     0.19713    
         TOTAL TIME 6.30720E+06 1.05120E+05  1752.0      73.000     0.19986    
1
 
 SOLVING FOR HEAD 

 OUTPUT CONTROL FOR STRESS PERIOD    2   TIME STEP   73
    SAVE HEAD FOR ALL LAYERS
    SAVE DRAWDOWN FOR ALL LAYERS
    SAVE BUDGET
    PRINT HEAD FOR ALL LAYERS
    PRINT BUDGET
 UBDSV1 SAVING "         STORAGE" ON UNIT  53 AT TIME STEP 73, STRESS PERIOD   2
 UBDSV2 SAVING "   CONSTANT HEAD" ON UNIT  53 AT TIME STEP 73, STRESS PERIOD   2
 UBDSV1 SAVING "FLOW RIGHT FACE " ON UNIT  53 AT TIME STEP 73, STRESS PERIOD   2
 UBDSV1 SAVING "FLOW FRONT FACE " ON UNIT  53 AT TIME STEP 73, STRESS PERIOD   2
 UBDSV1 SAVING "FLOW LOWER FACE " ON UNIT  53 AT TIME STEP 73, STRESS PERIOD   2

 SAVING SATURATED THICKNESS AND FLOW TERMS ON UNIT   54 FOR MT3DMS
 BY THE LINK-MT3DMS PACKAGE V7 AT TIME STEP   73, STRESS PERIOD    2

1
              HEAD IN LAYER   1 AT END OF TIME STEP  73 IN STRESS PERIOD    2
  ---------------------------------------------------------------------------

            1           2           3           4           5           6           7           8           9          10
 ........................................................................................................................
   1    9.998       8.943       7.875       6.795       5.702       4.595       3.471       2.331       1.175      1.5325E-03
   2    9.998       8.945       7.879       6.802       5.712       4.606       3.480       2.337       1.178      1.5368E-03
   3    9.998       8.948       7.887       6.816       5.733       4.631       3.501       2.351       1.185      1.5456E-03
   4    9.998       8.953       7.898       6.838       5.769       4.680       3.538       2.372       1.195      1.5587E-03
   5    9.998       8.958       7.910       6.864       5.825       4.786       3.595       2.399       1.205      1.5730E-03
   6    9.998       8.960       7.917       6.884       5.893       5.082       3.665       2.419       1.211      1.5815E-03
   7    9.998       8.958       7.911       6.866       5.827       4.787       3.597       2.400       1.206      1.5738E-03
   8    9.998       8.954       7.900       6.840       5.772       4.684       3.541       2.375       1.196      1.5605E-03
   9    9.998       8.950       7.890       6.821       5.739       4.638       3.507       2.355       1.188      1.5491E-03
  10    9.998       8.948       7.885       6.811       5.724       4.619       3.492       2.346       1.183      1.5430E-03
1
              HEAD IN LAYER   2 AT END OF TIME STEP  73 IN STRESS PERIOD    2
  ---------------------------------------------------------------------------

            1           2           3           4           5           6           7           8           9          10
 ........................................................................................................................
   1    9.998       8.941       7.873       6.794       5.701       4.594       3.470       2.329       1.174      2.5207E-03
   2    9.998       8.943       7.877       6.801       5.711       4.605       3.479       2.336       1.177      2.5276E-03
   3    9.998       8.947       7.886       6.815       5.732       4.630       3.500       2.349       1.183      2.5417E-03
   4    9.998       8.952       7.897       6.837       5.768       4.679       3.537       2.371       1.193      2.5624E-03
   5    9.998       8.956       7.910       6.864       5.825       4.784       3.594       2.398       1.204      2.5853E-03
   6    9.998       8.959       7.916       6.883       5.892       5.121       3.663       2.418       1.210      2.5985E-03
   7    9.998       8.957       7.910       6.865       5.826       4.786       3.595       2.399       1.204      2.5865E-03
   8    9.998       8.953       7.899       6.840       5.772       4.683       3.540       2.374       1.194      2.5653E-03
   9    9.998       8.949       7.889       6.820       5.739       4.637       3.507       2.354       1.186      2.5473E-03
  10    9.998       8.946       7.884       6.811       5.723       4.618       3.491       2.345       1.182      2.5377E-03
1
              HEAD IN LAYER   3 AT END OF TIME STEP  73 IN STRESS PERIOD    2
  ---------------------------------------------------------------------------

            1           2           3           4           5           6           7           8           9          10
 ........................................................................................................................
   1    9.998       8.940       7.872       6.793       5.700       4.593       3.469       2.328       1.172      2.5709E-03
   2    9.998       8.942       7.876       6.800       5.710       4.604       3.478       2.334       1.175      2.5780E-03
   3    9.998       8.946       7.885       6.814       5.731       4.629       3.499       2.348       1.182      2.5925E-03
   4    9.998       8.951       7.896       6.836       5.768       4.678       3.536       2.370       1.192      2.6137E-03
   5    9.998       8.955       7.909       6.863       5.824       4.778       3.593       2.397       1.202      2.6370E-03
   6    9.998       8.958       7.916       6.883       5.886       5.012       3.656       2.416       1.209      2.6505E-03
   7    9.998       8.956       7.910       6.865       5.825       4.780       3.594       2.398       1.203      2.6383E-03
   8    9.998       8.952       7.898       6.839       5.772       4.682       3.540       2.373       1.193      2.6167E-03
   9    9.998       8.948       7.889       6.820       5.738       4.637       3.506       2.353       1.185      2.5984E-03
  10    9.998       8.945       7.883       6.810       5.723       4.618       3.491       2.344       1.180      2.5885E-03
1
              HEAD IN LAYER   4 AT END OF TIME STEP  73 IN STRESS PERIOD    2
  ---------------------------------------------------------------------------

            1           2           3           4           5           6           7           8           9          10
 ........................................................................................................................
   1    9.998       8.939       7.871       6.792       5.700       4.592       3.468       2.327       1.171      2.5711E-03
   2    9.998       8.941       7.876       6.799       5.709       4.603       3.477       2.334       1.175      2.5783E-03
   3    9.998       8.945       7.884       6.814       5.731       4.629       3.499       2.348       1.181      2.5928E-03
   4    9.998       8.950       7.896       6.836       5.767       4.677       3.535       2.369       1.191      2.6140E-03
   5    9.998       8.955       7.908       6.863       5.823       4.772       3.591       2.396       1.201      2.6374E-03
   6    9.998       8.957       7.915       6.882       5.881       4.947       3.650       2.415       1.208      2.6508E-03
   7    9.998       8.955       7.909       6.864       5.824       4.774       3.593       2.397       1.202      2.6387E-03
   8    9.998       8.951       7.898       6.839       5.771       4.681       3.539       2.372       1.192      2.6171E-03
   9    9.998       8.947       7.888       6.819       5.738       4.636       3.506       2.353       1.184      2.5988E-03
  10    9.998       8.945       7.883       6.809       5.723       4.617       3.490       2.343       1.179      2.5889E-03
1
              HEAD IN LAYER   5 AT END OF TIME STEP  73 IN STRESS PERIOD    2
  ---------------------------------------------------------------------------

            1           2           3           4           5           6           7           8           9          10
 ........................................................................................................................
   1    9.998       8.939       7.871       6.792       5.700       4.592       3.467       2.327       1.171      2.5702E-03
   2    9.998       8.941       7.875       6.799       5.709       4.603       3.477       2.333       1.174      2.5774E-03
   3    9.998       8.945       7.884       6.813       5.731       4.628       3.498       2.347       1.181      2.5919E-03
   4    9.998       8.950       7.896       6.836       5.767       4.677       3.535       2.369       1.190      2.6132E-03
   5    9.998       8.955       7.908       6.863       5.822       4.769       3.590       2.396       1.201      2.6366E-03
   6    9.998       8.957       7.915       6.882       5.878       4.918       3.646       2.415       1.207      2.6500E-03
   7    9.998       8.955       7.909       6.864       5.824       4.770       3.592       2.397       1.202      2.6379E-03
   8    9.998       8.951       7.898       6.839       5.771       4.681       3.539       2.372       1.192      2.6163E-03
   9    9.998       8.947       7.888       6.819       5.738       4.636       3.505       2.352       1.183      2.5980E-03
  10    9.998       8.944       7.882       6.809       5.722       4.617       3.490       2.343       1.179      2.5881E-03

 HEAD WILL BE SAVED ON UNIT   51 AT END OF TIME STEP   73, STRESS PERIOD    2

 DRAWDOWN WILL BE SAVED ON UNIT   52 AT END OF TIME STEP   73, STRESS PERIOD    2
1
  VOLUMETRIC BUDGET FOR ENTIRE MODEL AT END OF TIME STEP   73, STRESS PERIOD   2
  ------------------------------------------------------------------------------

     CUMULATIVE VOLUMES      L**3       RATES FOR THIS TIME STEP      L**3/T
     ------------------                 ------------------------

           IN:                                      IN:
           ---                                      ---
             STORAGE =           0.0000               STORAGE =           0.0000
       CONSTANT HEAD =           0.0000         CONSTANT HEAD =           0.0000
               WELLS =        7300.0000                 WELLS =         100.0000
     HEAD DEP BOUNDS =       85703.7656       HEAD DEP BOUNDS =        1147.5708

            TOTAL IN =       93003.7656              TOTAL IN =        1247.5708

          OUT:                                     OUT:
          ----                                     ----
             STORAGE =        5736.8730               STORAGE =          53.7412
       CONSTANT HEAD =           0.0000         CONSTANT HEAD =           0.0000
               WELLS =           0.0000                 WELLS =           0.0000
     HEAD DEP BOUNDS =       87265.5469       HEAD DEP BOUNDS =        1193.7922

           TOTAL OUT =       93002.4219             TOTAL OUT =        1247.5334

            IN - OUT =           1.3438              IN - OUT =       3.7354E-02

 PERCENT DISCREPANCY =           0.00     PERCENT DISCREPANCY =           0.00






         TIME SUMMARY AT END OF TIME STEP   73 IN STRESS PERIOD    2
                    SECONDS     MINUTES      HOURS       DAYS        YEARS
                    -----------------------------------------------------------
   TIME STEP LENGTH  86400.      1440.0      24.000      1.0000     2.73785E-03
 STRESS PERIOD TIME 6.30720E+06 1.05120E+05  1752.0      73.000     0.19986    
         TOTAL TIME 6.39360E+06 1.06560E+05  1776.0      74.000     0.20260    
1
 
 SOLVING FOR HEAD 

 OUTPUT CONTROL FOR STRESS PERIOD    2   TIME STEP   74
    SAVE HEAD FOR ALL LAYERS
    SAVE DRAWDOWN FOR ALL LAYERS
    SAVE BUDGET
    PRINT HEAD FOR ALL LAYERS
    PRINT BUDGET
 UBDSV1 SAVING "         STORAGE" ON UNIT  53 AT TIME STEP 74, STRESS PERIOD   2
 UBDSV2 SAVING "   CONSTANT HEAD" ON UNIT  53 AT TIME STEP 74, STRESS PERIOD   2
 UBDSV1 SAVING "FLOW RIGHT FACE " ON UNIT  53 AT TIME STEP 74, STRESS PERIOD   2
 UBDSV1 SAVING "FLOW FRONT FACE " ON UNIT  53 AT TIME STEP 74, STRESS PERIOD   2
 UBDSV1 SAVING "FLOW LOWER FACE " ON UNIT  53 AT TIME STEP 74, STRESS PERIOD   2

 SAVING SATURATED THICKNESS AND FLOW TERMS ON UNIT   54 FOR MT3DMS
 BY THE LINK-MT3DMS PACKAGE V7 AT TIME STEP   74, STRESS PERIOD    2

1
              HEAD IN LAYER   1 AT END OF TIME STEP  74 IN STRESS PERIOD    2
  ---------------------------------------------------------------------------

            1           2           3           4           5           6           7           8           9          10
 ........................................................................................................................
   1    9.998       8.943       7.875       6.795       5.703       4.595       3.471       2.331       1.176      1.5328E-03
   2    9.998       8.945       7.879       6.802       5.712       4.606       3.481       2.338       1.179      1.5371E-03
   3    9.998       8.948       7.887       6.816       5.733       4.631       3.502       2.351       1.185      1.5460E-03
   4    9.998       8.953       7.899       6.838       5.770       4.681       3.539       2.373       1.195      1.5591E-03
   5    9.998       8.958       7.911       6.865       5.826       4.787       3.596       2.400       1.206      1.5735E-03
   6    9.998       8.960       7.918       6.885       5.894       5.083       3.666       2.420       1.212      1.5820E-03
   7    9.998       8.958       7.912       6.866       5.828       4.788       3.598       2.401       1.206      1.5743E-03
   8    9.998       8.954       7.901       6.841       5.773       4.685       3.542       2.375       1.196      1.5609E-03
   9    9.998       8.950       7.891       6.822       5.740       4.639       3.508       2.356       1.188      1.5495E-03
  10    9.998       8.948       7.886       6.812       5.725       4.620       3.493       2.346       1.183      1.5434E-03
1
              HEAD IN LAYER   2 AT END OF TIME STEP  74 IN STRESS PERIOD    2
  ---------------------------------------------------------------------------

            1           2           3           4           5           6           7           8           9          10
 ........................................................................................................................
   1    9.998       8.941       7.874       6.794       5.702       4.594       3.470       2.330       1.174      2.5212E-03
   2    9.998       8.943       7.878       6.801       5.711       4.605       3.480       2.336       1.177      2.5281E-03
   3    9.998       8.947       7.886       6.815       5.733       4.631       3.501       2.350       1.184      2.5423E-03
   4    9.998       8.952       7.898       6.838       5.769       4.680       3.538       2.372       1.193      2.5631E-03
   5    9.998       8.957       7.910       6.865       5.826       4.785       3.595       2.399       1.204      2.5861E-03
   6    9.998       8.959       7.917       6.884       5.893       5.122       3.664       2.419       1.210      2.5994E-03
   7    9.998       8.957       7.911       6.866       5.827       4.787       3.596       2.400       1.205      2.5873E-03
   8    9.998       8.953       7.900       6.841       5.773       4.684       3.541       2.374       1.195      2.5660E-03
   9    9.998       8.949       7.890       6.821       5.740       4.638       3.508       2.355       1.186      2.5480E-03
  10    9.998       8.947       7.884       6.811       5.724       4.619       3.492       2.345       1.182      2.5383E-03
1
              HEAD IN LAYER   3 AT END OF TIME STEP  74 IN STRESS PERIOD    2
  ---------------------------------------------------------------------------

            1           2           3           4           5           6           7           8           9          10
 ........................................................................................................................
   1    9.998       8.940       7.872       6.793       5.701       4.593       3.469       2.328       1.172      2.5714E-03
   2    9.998       8.942       7.877       6.800       5.711       4.604       3.479       2.335       1.176      2.5786E-03
   3    9.998       8.946       7.885       6.815       5.732       4.630       3.500       2.349       1.182      2.5931E-03
   4    9.998       8.951       7.897       6.837       5.769       4.679       3.537       2.371       1.192      2.6144E-03
   5    9.998       8.956       7.909       6.864       5.825       4.779       3.593       2.398       1.203      2.6378E-03
   6    9.998       8.958       7.916       6.883       5.887       5.013       3.657       2.417       1.209      2.6513E-03
   7    9.998       8.956       7.910       6.865       5.826       4.781       3.595       2.399       1.203      2.6391E-03
   8    9.998       8.952       7.899       6.840       5.772       4.683       3.540       2.373       1.193      2.6175E-03
   9    9.998       8.948       7.889       6.821       5.739       4.638       3.507       2.354       1.185      2.5991E-03
  10    9.998       8.946       7.884       6.811       5.724       4.619       3.491       2.344       1.181      2.5892E-03
1
              HEAD IN LAYER   4 AT END OF TIME STEP  74 IN STRESS PERIOD    2
  ---------------------------------------------------------------------------

            1           2           3           4           5           6           7           8           9          10
 ........................................................................................................................
   1    9.998       8.939       7.872       6.793       5.700       4.593       3.468       2.327       1.171      2.5716E-03
   2    9.998       8.941       7.876       6.800       5.710       4.604       3.478       2.334       1.175      2.5788E-03
   3    9.998       8.945       7.884       6.814       5.731       4.629       3.499       2.348       1.181      2.5934E-03
   4    9.998       8.950       7.896       6.837       5.768       4.678       3.536       2.370       1.191      2.6147E-03
   5    9.998       8.955       7.909       6.864       5.824       4.773       3.592       2.397       1.202      2.6382E-03
   6    9.998       8.958       7.916       6.883       5.882       4.948       3.651       2.416       1.208      2.6516E-03
   7    9.998       8.956       7.910       6.865       5.825       4.775       3.594       2.398       1.202      2.6395E-03
   8    9.998       8.951       7.899       6.840       5.772       4.682       3.540       2.372       1.193      2.6179E-03
   9    9.998       8.947       7.889       6.820       5.739       4.637       3.506       2.353       1.184      2.5995E-03
  10    9.998       8.945       7.883       6.810       5.723       4.618       3.491       2.343       1.180      2.5896E-03
1
              HEAD IN LAYER   5 AT END OF TIME STEP  74 IN STRESS PERIOD    2
  ---------------------------------------------------------------------------

            1           2           3           4           5           6           7           8           9          10
 ........................................................................................................................
   1    9.998       8.939       7.871       6.792       5.700       4.593       3.468       2.327       1.171      2.5707E-03
   2    9.998       8.941       7.876       6.799       5.710       4.604       3.478       2.334       1.174      2.5779E-03
   3    9.998       8.945       7.884       6.814       5.731       4.629       3.499       2.348       1.181      2.5925E-03
   4    9.998       8.950       7.896       6.836       5.768       4.678       3.536       2.369       1.191      2.6139E-03
   5    9.998       8.955       7.909       6.863       5.823       4.770       3.591       2.396       1.201      2.6373E-03
   6    9.998       8.957       7.916       6.882       5.878       4.919       3.647       2.415       1.208      2.6508E-03
   7    9.998       8.955       7.910       6.865       5.825       4.771       3.593       2.397       1.202      2.6387E-03
   8    9.998       8.951       7.898       6.839       5.772       4.682       3.540       2.372       1.192      2.6171E-03
   9    9.998       8.947       7.888       6.820       5.739       4.637       3.506       2.353       1.184      2.5987E-03
  10    9.998       8.945       7.883       6.810       5.723       4.618       3.491       2.343       1.179      2.5887E-03

 HEAD WILL BE SAVED ON UNIT   51 AT END OF TIME STEP   74, STRESS PERIOD    2

 DRAWDOWN WILL BE SAVED ON UNIT   52 AT END OF TIME STEP   74, STRESS PERIOD    2
1
  VOLUMETRIC BUDGET FOR ENTIRE MODEL AT END OF TIME STEP   74, STRESS PERIOD   2
  ------------------------------------------------------------------------------

     CUMULATIVE VOLUMES      L**3       RATES FOR THIS TIME STEP      L**3/T
     ------------------                 ------------------------

           IN:                                      IN:
           ---                                      ---
             STORAGE =           0.0000               STORAGE =           0.0000
       CONSTANT HEAD =           0.0000         CONSTANT HEAD =           0.0000
               WELLS =        7400.0000                 WELLS =         100.0000
     HEAD DEP BOUNDS =       86851.0625       HEAD DEP BOUNDS =        1147.2931

            TOTAL IN =       94251.0625              TOTAL IN =        1247.2931

          OUT:                                     OUT:
          ----                                     ----
             STORAGE =        5790.0347               STORAGE =          53.1614
       CONSTANT HEAD =           0.0000         CONSTANT HEAD =           0.0000
               WELLS =           0.0000                 WELLS =           0.0000
     HEAD DEP BOUNDS =       88459.6562       HEAD DEP BOUNDS =        1194.1093

           TOTAL OUT =       94249.6875             TOTAL OUT =        1247.2706

            IN - OUT =           1.3750              IN - OUT =       2.2461E-02

 PERCENT DISCREPANCY =           0.00     PERCENT DISCREPANCY =           0.00






         TIME SUMMARY AT END OF TIME STEP   74 IN STRESS PERIOD    2
                    SECONDS     MINUTES      HOURS       DAYS        YEARS
                    -----------------------------------------------------------
   TIME STEP LENGTH  86400.      1440.0      24.000      1.0000     2.73785E-03
 STRESS PERIOD TIME 6.39360E+06 1.06560E+05  1776.0      74.000     0.20260    
         TOTAL TIME 6.48000E+06 1.08000E+05  1800.0      75.000     0.20534    
1
 
 SOLVING FOR HEAD 

 OUTPUT CONTROL FOR STRESS PERIOD    2   TIME STEP   75
    SAVE HEAD FOR ALL LAYERS
    SAVE DRAWDOWN FOR ALL LAYERS
    SAVE BUDGET
    PRINT HEAD FOR ALL LAYERS
    PRINT BUDGET
 UBDSV1 SAVING "         STORAGE" ON UNIT  53 AT TIME STEP 75, STRESS PERIOD   2
 UBDSV2 SAVING "   CONSTANT HEAD" ON UNIT  53 AT TIME STEP 75, STRESS PERIOD   2
 UBDSV1 SAVING "FLOW RIGHT FACE " ON UNIT  53 AT TIME STEP 75, STRESS PERIOD   2
 UBDSV1 SAVING "FLOW FRONT FACE " ON UNIT  53 AT TIME STEP 75, STRESS PERIOD   2
 UBDSV1 SAVING "FLOW LOWER FACE " ON UNIT  53 AT TIME STEP 75, STRESS PERIOD   2

 SAVING SATURATED THICKNESS AND FLOW TERMS ON UNIT   54 FOR MT3DMS
 BY THE LINK-MT3DMS PACKAGE V7 AT TIME STEP   75, STRESS PERIOD    2

1
              HEAD IN LAYER   1 AT END OF TIME STEP  75 IN STRESS PERIOD    2
  ---------------------------------------------------------------------------

            1           2           3           4           5           6           7           8           9          10
 ........................................................................................................................
   1    9.998       8.943       7.875       6.796       5.704       4.596       3.472       2.331       1.176      1.5330E-03
   2    9.998       8.945       7.879       6.803       5.713       4.607       3.481       2.338       1.179      1.5375E-03
   3    9.998       8.949       7.888       6.817       5.734       4.632       3.502       2.352       1.186      1.5464E-03
   4    9.998       8.953       7.899       6.839       5.771       4.682       3.539       2.373       1.195      1.5596E-03
   5    9.998       8.958       7.912       6.866       5.827       4.788       3.597       2.401       1.206      1.5740E-03
   6    9.998       8.961       7.918       6.886       5.895       5.084       3.667       2.421       1.212      1.5825E-03
   7    9.998       8.959       7.912       6.867       5.829       4.789       3.598       2.402       1.207      1.5748E-03
   8    9.998       8.955       7.901       6.842       5.774       4.686       3.543       2.376       1.197      1.5614E-03
   9    9.998       8.951       7.892       6.823       5.741       4.640       3.509       2.357       1.188      1.5500E-03
  10    9.998       8.948       7.886       6.813       5.726       4.621       3.494       2.347       1.184      1.5438E-03
1
              HEAD IN LAYER   2 AT END OF TIME STEP  75 IN STRESS PERIOD    2
  ---------------------------------------------------------------------------

            1           2           3           4           5           6           7           8           9          10
 ........................................................................................................................
   1    9.998       8.942       7.874       6.795       5.702       4.595       3.471       2.330       1.174      2.5216E-03
   2    9.998       8.943       7.878       6.802       5.712       4.606       3.480       2.337       1.177      2.5286E-03
   3    9.998       8.947       7.886       6.816       5.733       4.631       3.501       2.350       1.184      2.5429E-03
   4    9.998       8.952       7.898       6.838       5.770       4.681       3.538       2.372       1.194      2.5638E-03
   5    9.998       8.957       7.911       6.865       5.827       4.786       3.596       2.399       1.204      2.5868E-03
   6    9.998       8.959       7.918       6.885       5.894       5.123       3.665       2.419       1.211      2.6002E-03
   7    9.998       8.957       7.912       6.867       5.828       4.788       3.597       2.401       1.205      2.5881E-03
   8    9.998       8.953       7.900       6.841       5.774       4.685       3.542       2.375       1.195      2.5668E-03
   9    9.998       8.949       7.890       6.822       5.741       4.639       3.508       2.356       1.187      2.5487E-03
  10    9.998       8.947       7.885       6.812       5.725       4.620       3.493       2.346       1.182      2.5390E-03
1
              HEAD IN LAYER   3 AT END OF TIME STEP  75 IN STRESS PERIOD    2
  ---------------------------------------------------------------------------

            1           2           3           4           5           6           7           8           9          10
 ........................................................................................................................
   1    9.998       8.940       7.873       6.794       5.702       4.594       3.470       2.329       1.173      2.5719E-03
   2    9.998       8.942       7.877       6.801       5.711       4.605       3.479       2.335       1.176      2.5791E-03
   3    9.998       8.946       7.885       6.815       5.733       4.631       3.501       2.349       1.183      2.5937E-03
   4    9.998       8.951       7.897       6.838       5.770       4.680       3.538       2.371       1.192      2.6151E-03
   5    9.998       8.956       7.910       6.865       5.826       4.780       3.594       2.398       1.203      2.6386E-03
   6    9.998       8.958       7.917       6.884       5.888       5.013       3.658       2.418       1.209      2.6521E-03
   7    9.998       8.957       7.911       6.866       5.827       4.781       3.596       2.399       1.204      2.6399E-03
   8    9.998       8.952       7.900       6.841       5.773       4.684       3.541       2.374       1.194      2.6183E-03
   9    9.998       8.948       7.890       6.821       5.740       4.638       3.508       2.355       1.185      2.5998E-03
  10    9.998       8.946       7.884       6.811       5.725       4.619       3.492       2.345       1.181      2.5899E-03
1
              HEAD IN LAYER   4 AT END OF TIME STEP  75 IN STRESS PERIOD    2
  ---------------------------------------------------------------------------

            1           2           3           4           5           6           7           8           9          10
 ........................................................................................................................
   1    9.998       8.940       7.872       6.793       5.701       4.593       3.469       2.328       1.172      2.5721E-03
   2    9.998       8.942       7.876       6.800       5.711       4.604       3.479       2.335       1.175      2.5793E-03
   3    9.998       8.945       7.885       6.815       5.732       4.630       3.500       2.349       1.182      2.5940E-03
   4    9.998       8.951       7.897       6.837       5.769       4.679       3.537       2.370       1.191      2.6154E-03
   5    9.998       8.955       7.909       6.864       5.824       4.774       3.593       2.397       1.202      2.6389E-03
   6    9.998       8.958       7.916       6.884       5.883       4.949       3.652       2.417       1.208      2.6524E-03
   7    9.998       8.956       7.910       6.866       5.826       4.776       3.594       2.399       1.203      2.6403E-03
   8    9.998       8.952       7.899       6.840       5.773       4.683       3.541       2.373       1.193      2.6186E-03
   9    9.998       8.948       7.889       6.821       5.740       4.638       3.507       2.354       1.185      2.6002E-03
  10    9.998       8.945       7.884       6.811       5.724       4.619       3.492       2.344       1.180      2.5902E-03
1
              HEAD IN LAYER   5 AT END OF TIME STEP  75 IN STRESS PERIOD    2
  ---------------------------------------------------------------------------

            1           2           3           4           5           6           7           8           9          10
 ........................................................................................................................
   1    9.998       8.939       7.872       6.793       5.701       4.593       3.469       2.327       1.171      2.5712E-03
   2    9.998       8.941       7.876       6.800       5.710       4.604       3.478       2.334       1.175      2.5784E-03
   3    9.998       8.945       7.885       6.815       5.732       4.630       3.500       2.348       1.181      2.5931E-03
   4    9.998       8.950       7.897       6.837       5.769       4.679       3.537       2.370       1.191      2.6146E-03
   5    9.998       8.955       7.909       6.864       5.824       4.771       3.592       2.397       1.202      2.6381E-03
   6    9.998       8.958       7.916       6.883       5.879       4.920       3.648       2.416       1.208      2.6516E-03
   7    9.998       8.956       7.910       6.866       5.826       4.772       3.594       2.398       1.202      2.6395E-03
   8    9.998       8.951       7.899       6.840       5.773       4.683       3.540       2.373       1.193      2.6178E-03
   9    9.998       8.947       7.889       6.821       5.740       4.638       3.507       2.354       1.184      2.5994E-03
  10    9.998       8.945       7.883       6.811       5.724       4.619       3.491       2.344       1.180      2.5894E-03

 HEAD WILL BE SAVED ON UNIT   51 AT END OF TIME STEP   75, STRESS PERIOD    2

 DRAWDOWN WILL BE SAVED ON UNIT   52 AT END OF TIME STEP   75, STRESS PERIOD    2
1
  VOLUMETRIC BUDGET FOR ENTIRE MODEL AT END OF TIME STEP   75, STRESS PERIOD   2
  ------------------------------------------------------------------------------

     CUMULATIVE VOLUMES      L**3       RATES FOR THIS TIME STEP      L**3/T
     ------------------                 ------------------------

           IN:                                      IN:
           ---                                      ---
             STORAGE =           0.0000               STORAGE =           0.0000
       CONSTANT HEAD =           0.0000         CONSTANT HEAD =           0.0000
               WELLS =        7500.0000                 WELLS =         100.0000
     HEAD DEP BOUNDS =       87998.0781       HEAD DEP BOUNDS =        1147.0177

            TOTAL IN =       95498.0781              TOTAL IN =        1247.0177

          OUT:                                     OUT:
          ----                                     ----
             STORAGE =        5842.5972               STORAGE =          52.5623
       CONSTANT HEAD =           0.0000         CONSTANT HEAD =           0.0000
               WELLS =           0.0000                 WELLS =           0.0000
     HEAD DEP BOUNDS =       89654.0859       HEAD DEP BOUNDS =        1194.4271

           TOTAL OUT =       95496.6797             TOTAL OUT =        1246.9895

            IN - OUT =           1.3984              IN - OUT =       2.8198E-02

 PERCENT DISCREPANCY =           0.00     PERCENT DISCREPANCY =           0.00






         TIME SUMMARY AT END OF TIME STEP   75 IN STRESS PERIOD    2
                    SECONDS     MINUTES      HOURS       DAYS        YEARS
                    -----------------------------------------------------------
   TIME STEP LENGTH  86400.      1440.0      24.000      1.0000     2.73785E-03
 STRESS PERIOD TIME 6.48000E+06 1.08000E+05  1800.0      75.000     0.20534    
         TOTAL TIME 6.56640E+06 1.09440E+05  1824.0      76.000     0.20808    
1
 
 SOLVING FOR HEAD 

 OUTPUT CONTROL FOR STRESS PERIOD    2   TIME STEP   76
    SAVE HEAD FOR ALL LAYERS
    SAVE DRAWDOWN FOR ALL LAYERS
    SAVE BUDGET
    PRINT HEAD FOR ALL LAYERS
    PRINT BUDGET
 UBDSV1 SAVING "         STORAGE" ON UNIT  53 AT TIME STEP 76, STRESS PERIOD   2
 UBDSV2 SAVING "   CONSTANT HEAD" ON UNIT  53 AT TIME STEP 76, STRESS PERIOD   2
 UBDSV1 SAVING "FLOW RIGHT FACE " ON UNIT  53 AT TIME STEP 76, STRESS PERIOD   2
 UBDSV1 SAVING "FLOW FRONT FACE " ON UNIT  53 AT TIME STEP 76, STRESS PERIOD   2
 UBDSV1 SAVING "FLOW LOWER FACE " ON UNIT  53 AT TIME STEP 76, STRESS PERIOD   2

 SAVING SATURATED THICKNESS AND FLOW TERMS ON UNIT   54 FOR MT3DMS
 BY THE LINK-MT3DMS PACKAGE V7 AT TIME STEP   76, STRESS PERIOD    2

1
              HEAD IN LAYER   1 AT END OF TIME STEP  76 IN STRESS PERIOD    2
  ---------------------------------------------------------------------------

            1           2           3           4           5           6           7           8           9          10
 ........................................................................................................................
   1    9.998       8.943       7.876       6.796       5.704       4.597       3.472       2.332       1.176      1.5334E-03
   2    9.998       8.945       7.880       6.803       5.714       4.608       3.482       2.338       1.179      1.5378E-03
   3    9.998       8.949       7.888       6.818       5.735       4.633       3.503       2.352       1.186      1.5468E-03
   4    9.998       8.954       7.900       6.840       5.772       4.683       3.540       2.374       1.196      1.5600E-03
   5    9.998       8.959       7.912       6.867       5.828       4.789       3.598       2.401       1.206      1.5746E-03
   6    9.998       8.961       7.919       6.886       5.896       5.085       3.668       2.421       1.213      1.5830E-03
   7    9.998       8.959       7.913       6.868       5.830       4.790       3.599       2.402       1.207      1.5753E-03
   8    9.998       8.955       7.902       6.843       5.775       4.687       3.544       2.377       1.197      1.5619E-03
   9    9.998       8.951       7.892       6.823       5.742       4.640       3.510       2.357       1.189      1.5504E-03
  10    9.998       8.948       7.887       6.813       5.727       4.621       3.494       2.348       1.184      1.5443E-03
1
              HEAD IN LAYER   2 AT END OF TIME STEP  76 IN STRESS PERIOD    2
  ---------------------------------------------------------------------------

            1           2           3           4           5           6           7           8           9          10
 ........................................................................................................................
   1    9.998       8.942       7.874       6.795       5.703       4.596       3.471       2.330       1.174      2.5221E-03
   2    9.998       8.944       7.878       6.802       5.713       4.607       3.481       2.337       1.178      2.5291E-03
   3    9.998       8.947       7.887       6.817       5.734       4.632       3.502       2.351       1.184      2.5435E-03
   4    9.998       8.952       7.899       6.839       5.771       4.682       3.539       2.373       1.194      2.5645E-03
   5    9.998       8.957       7.911       6.866       5.828       4.787       3.597       2.400       1.205      2.5876E-03
   6    9.998       8.960       7.918       6.886       5.895       5.124       3.665       2.420       1.211      2.6010E-03
   7    9.998       8.958       7.912       6.868       5.829       4.789       3.598       2.401       1.205      2.5889E-03
   8    9.998       8.953       7.901       6.842       5.775       4.686       3.543       2.376       1.195      2.5676E-03
   9    9.998       8.949       7.891       6.823       5.741       4.640       3.509       2.356       1.187      2.5494E-03
  10    9.998       8.947       7.885       6.813       5.726       4.621       3.494       2.346       1.182      2.5397E-03
1
              HEAD IN LAYER   3 AT END OF TIME STEP  76 IN STRESS PERIOD    2
  ---------------------------------------------------------------------------

            1           2           3           4           5           6           7           8           9          10
 ........................................................................................................................
   1    9.998       8.941       7.873       6.794       5.702       4.595       3.470       2.329       1.173      2.5724E-03
   2    9.998       8.943       7.877       6.801       5.712       4.606       3.480       2.336       1.176      2.5796E-03
   3    9.998       8.946       7.886       6.816       5.733       4.631       3.501       2.350       1.183      2.5943E-03
   4    9.998       8.951       7.898       6.838       5.770       4.681       3.538       2.372       1.193      2.6158E-03
   5    9.998       8.956       7.910       6.866       5.826       4.781       3.595       2.399       1.203      2.6394E-03
   6    9.998       8.959       7.917       6.885       5.889       5.014       3.659       2.418       1.210      2.6529E-03
   7    9.998       8.957       7.911       6.867       5.828       4.782       3.597       2.400       1.204      2.6407E-03
   8    9.998       8.953       7.900       6.842       5.774       4.685       3.542       2.374       1.194      2.6190E-03
   9    9.998       8.948       7.890       6.822       5.741       4.639       3.508       2.355       1.186      2.6005E-03
  10    9.998       8.946       7.885       6.812       5.725       4.620       3.493       2.345       1.181      2.5906E-03
1
              HEAD IN LAYER   4 AT END OF TIME STEP  76 IN STRESS PERIOD    2
  ---------------------------------------------------------------------------

            1           2           3           4           5           6           7           8           9          10
 ........................................................................................................................
   1    9.998       8.940       7.872       6.794       5.702       4.594       3.469       2.328       1.172      2.5725E-03
   2    9.998       8.942       7.877       6.801       5.711       4.605       3.479       2.335       1.175      2.5798E-03
   3    9.998       8.946       7.885       6.815       5.733       4.631       3.501       2.349       1.182      2.5946E-03
   4    9.998       8.951       7.897       6.838       5.770       4.680       3.538       2.371       1.192      2.6161E-03
   5    9.998       8.956       7.910       6.865       5.825       4.775       3.594       2.398       1.203      2.6397E-03
   6    9.998       8.958       7.917       6.884       5.884       4.950       3.653       2.417       1.209      2.6532E-03
   7    9.998       8.956       7.911       6.867       5.827       4.777       3.595       2.399       1.203      2.6411E-03
   8    9.998       8.952       7.900       6.841       5.774       4.684       3.541       2.374       1.193      2.6194E-03
   9    9.998       8.948       7.890       6.822       5.741       4.639       3.508       2.354       1.185      2.6009E-03
  10    9.998       8.945       7.884       6.812       5.725       4.620       3.492       2.345       1.180      2.5909E-03
1
              HEAD IN LAYER   5 AT END OF TIME STEP  76 IN STRESS PERIOD    2
  ---------------------------------------------------------------------------

            1           2           3           4           5           6           7           8           9          10
 ........................................................................................................................
   1    9.998       8.940       7.872       6.793       5.701       4.594       3.469       2.328       1.171      2.5716E-03
   2    9.998       8.941       7.876       6.800       5.711       4.605       3.479       2.335       1.175      2.5789E-03
   3    9.998       8.945       7.885       6.815       5.733       4.630       3.500       2.349       1.182      2.5937E-03
   4    9.998       8.950       7.897       6.838       5.770       4.680       3.537       2.371       1.191      2.6152E-03
   5    9.998       8.955       7.910       6.865       5.825       4.772       3.593       2.398       1.202      2.6388E-03
   6    9.998       8.958       7.917       6.884       5.880       4.921       3.649       2.417       1.208      2.6523E-03
   7    9.998       8.956       7.911       6.866       5.826       4.773       3.594       2.399       1.203      2.6403E-03
   8    9.998       8.952       7.899       6.841       5.774       4.684       3.541       2.373       1.193      2.6186E-03
   9    9.998       8.948       7.889       6.821       5.740       4.639       3.508       2.354       1.184      2.6001E-03
  10    9.998       8.945       7.884       6.811       5.725       4.620       3.492       2.344       1.180      2.5901E-03

 HEAD WILL BE SAVED ON UNIT   51 AT END OF TIME STEP   76, STRESS PERIOD    2

 DRAWDOWN WILL BE SAVED ON UNIT   52 AT END OF TIME STEP   76, STRESS PERIOD    2
1
  VOLUMETRIC BUDGET FOR ENTIRE MODEL AT END OF TIME STEP   76, STRESS PERIOD   2
  ------------------------------------------------------------------------------

     CUMULATIVE VOLUMES      L**3       RATES FOR THIS TIME STEP      L**3/T
     ------------------                 ------------------------

           IN:                                      IN:
           ---                                      ---
             STORAGE =           0.0000               STORAGE =           0.0000
       CONSTANT HEAD =           0.0000         CONSTANT HEAD =           0.0000
               WELLS =        7600.0000                 WELLS =         100.0000
     HEAD DEP BOUNDS =       89144.8203       HEAD DEP BOUNDS =        1146.7448

            TOTAL IN =       96744.8203              TOTAL IN =        1246.7448

          OUT:                                     OUT:
          ----                                     ----
             STORAGE =        5894.5767               STORAGE =          51.9796
       CONSTANT HEAD =           0.0000         CONSTANT HEAD =           0.0000
               WELLS =           0.0000                 WELLS =           0.0000
     HEAD DEP BOUNDS =       90848.8281       HEAD DEP BOUNDS =        1194.7385

           TOTAL OUT =       96743.4062             TOTAL OUT =        1246.7181

            IN - OUT =           1.4141              IN - OUT =       2.6611E-02

 PERCENT DISCREPANCY =           0.00     PERCENT DISCREPANCY =           0.00






         TIME SUMMARY AT END OF TIME STEP   76 IN STRESS PERIOD    2
                    SECONDS     MINUTES      HOURS       DAYS        YEARS
                    -----------------------------------------------------------
   TIME STEP LENGTH  86400.      1440.0      24.000      1.0000     2.73785E-03
 STRESS PERIOD TIME 6.56640E+06 1.09440E+05  1824.0      76.000     0.20808    
         TOTAL TIME 6.65280E+06 1.10880E+05  1848.0      77.000     0.21081    
1
 
 SOLVING FOR HEAD 

 OUTPUT CONTROL FOR STRESS PERIOD    2   TIME STEP   77
    SAVE HEAD FOR ALL LAYERS
    SAVE DRAWDOWN FOR ALL LAYERS
    SAVE BUDGET
    PRINT HEAD FOR ALL LAYERS
    PRINT BUDGET
 UBDSV1 SAVING "         STORAGE" ON UNIT  53 AT TIME STEP 77, STRESS PERIOD   2
 UBDSV2 SAVING "   CONSTANT HEAD" ON UNIT  53 AT TIME STEP 77, STRESS PERIOD   2
 UBDSV1 SAVING "FLOW RIGHT FACE " ON UNIT  53 AT TIME STEP 77, STRESS PERIOD   2
 UBDSV1 SAVING "FLOW FRONT FACE " ON UNIT  53 AT TIME STEP 77, STRESS PERIOD   2
 UBDSV1 SAVING "FLOW LOWER FACE " ON UNIT  53 AT TIME STEP 77, STRESS PERIOD   2

 SAVING SATURATED THICKNESS AND FLOW TERMS ON UNIT   54 FOR MT3DMS
 BY THE LINK-MT3DMS PACKAGE V7 AT TIME STEP   77, STRESS PERIOD    2

1
              HEAD IN LAYER   1 AT END OF TIME STEP  77 IN STRESS PERIOD    2
  ---------------------------------------------------------------------------

            1           2           3           4           5           6           7           8           9          10
 ........................................................................................................................
   1    9.998       8.943       7.876       6.797       5.705       4.597       3.473       2.332       1.176      1.5337E-03
   2    9.998       8.945       7.880       6.804       5.714       4.608       3.483       2.339       1.179      1.5381E-03
   3    9.998       8.949       7.888       6.818       5.736       4.634       3.504       2.353       1.186      1.5472E-03
   4    9.998       8.954       7.900       6.840       5.772       4.684       3.541       2.375       1.196      1.5605E-03
   5    9.998       8.959       7.913       6.868       5.829       4.790       3.599       2.402       1.207      1.5750E-03
   6    9.998       8.961       7.920       6.887       5.897       5.086       3.669       2.422       1.213      1.5835E-03
   7    9.998       8.959       7.914       6.869       5.831       4.791       3.600       2.403       1.207      1.5759E-03
   8    9.998       8.955       7.902       6.843       5.776       4.687       3.545       2.377       1.197      1.5624E-03
   9    9.998       8.951       7.893       6.824       5.743       4.641       3.511       2.358       1.189      1.5509E-03
  10    9.998       8.949       7.887       6.814       5.727       4.622       3.495       2.348       1.184      1.5447E-03
1
              HEAD IN LAYER   2 AT END OF TIME STEP  77 IN STRESS PERIOD    2
  ---------------------------------------------------------------------------

            1           2           3           4           5           6           7           8           9          10
 ........................................................................................................................
   1    9.998       8.942       7.875       6.796       5.704       4.596       3.472       2.331       1.175      2.5226E-03
   2    9.998       8.944       7.879       6.803       5.713       4.607       3.481       2.337       1.178      2.5296E-03
   3    9.998       8.948       7.887       6.817       5.735       4.633       3.503       2.351       1.185      2.5441E-03
   4    9.998       8.953       7.899       6.840       5.772       4.683       3.540       2.373       1.194      2.5651E-03
   5    9.998       8.958       7.912       6.867       5.828       4.788       3.598       2.401       1.205      2.5884E-03
   6    9.998       8.960       7.919       6.887       5.896       5.125       3.666       2.421       1.211      2.6018E-03
   7    9.998       8.958       7.913       6.868       5.830       4.790       3.599       2.402       1.206      2.5897E-03
   8    9.998       8.954       7.901       6.843       5.776       4.687       3.544       2.376       1.196      2.5683E-03
   9    9.998       8.950       7.891       6.823       5.742       4.641       3.510       2.357       1.187      2.5501E-03
  10    9.998       8.947       7.886       6.813       5.727       4.622       3.494       2.347       1.183      2.5404E-03
1
              HEAD IN LAYER   3 AT END OF TIME STEP  77 IN STRESS PERIOD    2
  ---------------------------------------------------------------------------

            1           2           3           4           5           6           7           8           9          10
 ........................................................................................................................
   1    9.998       8.941       7.873       6.795       5.703       4.595       3.471       2.330       1.173      2.5728E-03
   2    9.998       8.943       7.878       6.802       5.712       4.606       3.480       2.336       1.176      2.5801E-03
   3    9.998       8.947       7.886       6.816       5.734       4.632       3.502       2.350       1.183      2.5949E-03
   4    9.998       8.952       7.898       6.839       5.771       4.682       3.539       2.372       1.193      2.6164E-03
   5    9.998       8.957       7.911       6.866       5.827       4.782       3.596       2.399       1.204      2.6401E-03
   6    9.998       8.959       7.918       6.886       5.890       5.015       3.660       2.419       1.210      2.6537E-03
   7    9.998       8.957       7.912       6.868       5.829       4.783       3.598       2.401       1.204      2.6415E-03
   8    9.998       8.953       7.901       6.842       5.775       4.686       3.543       2.375       1.194      2.6198E-03
   9    9.998       8.949       7.891       6.823       5.742       4.640       3.509       2.356       1.186      2.6012E-03
  10    9.998       8.946       7.885       6.813       5.726       4.621       3.494       2.346       1.181      2.5912E-03
1
              HEAD IN LAYER   4 AT END OF TIME STEP  77 IN STRESS PERIOD    2
  ---------------------------------------------------------------------------

            1           2           3           4           5           6           7           8           9          10
 ........................................................................................................................
   1    9.998       8.940       7.873       6.794       5.702       4.595       3.470       2.329       1.172      2.5730E-03
   2    9.998       8.942       7.877       6.801       5.712       4.606       3.480       2.335       1.175      2.5803E-03
   3    9.998       8.946       7.886       6.816       5.734       4.631       3.501       2.349       1.182      2.5952E-03
   4    9.998       8.951       7.898       6.839       5.771       4.681       3.538       2.371       1.192      2.6167E-03
   5    9.998       8.956       7.910       6.866       5.826       4.776       3.594       2.399       1.203      2.6404E-03
   6    9.998       8.958       7.918       6.885       5.884       4.951       3.653       2.418       1.209      2.6540E-03
   7    9.998       8.957       7.911       6.867       5.828       4.778       3.596       2.400       1.204      2.6419E-03
   8    9.998       8.952       7.900       6.842       5.775       4.685       3.542       2.374       1.194      2.6201E-03
   9    9.998       8.948       7.890       6.822       5.741       4.640       3.509       2.355       1.185      2.6016E-03
  10    9.998       8.946       7.884       6.812       5.726       4.621       3.493       2.345       1.181      2.5916E-03
1
              HEAD IN LAYER   5 AT END OF TIME STEP  77 IN STRESS PERIOD    2
  ---------------------------------------------------------------------------

            1           2           3           4           5           6           7           8           9          10
 ........................................................................................................................
   1    9.998       8.940       7.872       6.794       5.702       4.594       3.470       2.328       1.172      2.5721E-03
   2    9.998       8.942       7.877       6.801       5.712       4.605       3.479       2.335       1.175      2.5794E-03
   3    9.998       8.946       7.885       6.816       5.733       4.631       3.501       2.349       1.182      2.5943E-03
   4    9.998       8.951       7.897       6.838       5.770       4.680       3.538       2.371       1.192      2.6159E-03
   5    9.998       8.956       7.910       6.866       5.826       4.772       3.594       2.398       1.202      2.6396E-03
   6    9.998       8.958       7.917       6.885       5.881       4.922       3.650       2.417       1.209      2.6531E-03
   7    9.998       8.956       7.911       6.867       5.827       4.774       3.595       2.399       1.203      2.6410E-03
   8    9.998       8.952       7.900       6.842       5.775       4.685       3.542       2.374       1.193      2.6193E-03
   9    9.998       8.948       7.890       6.822       5.741       4.640       3.508       2.355       1.185      2.6008E-03
  10    9.998       8.945       7.884       6.812       5.726       4.620       3.493       2.345       1.180      2.5907E-03

 HEAD WILL BE SAVED ON UNIT   51 AT END OF TIME STEP   77, STRESS PERIOD    2

 DRAWDOWN WILL BE SAVED ON UNIT   52 AT END OF TIME STEP   77, STRESS PERIOD    2
1
  VOLUMETRIC BUDGET FOR ENTIRE MODEL AT END OF TIME STEP   77, STRESS PERIOD   2
  ------------------------------------------------------------------------------

     CUMULATIVE VOLUMES      L**3       RATES FOR THIS TIME STEP      L**3/T
     ------------------                 ------------------------

           IN:                                      IN:
           ---                                      ---
             STORAGE =           0.0000               STORAGE =           0.0000
       CONSTANT HEAD =           0.0000         CONSTANT HEAD =           0.0000
               WELLS =        7700.0000                 WELLS =         100.0000
     HEAD DEP BOUNDS =       90291.3047       HEAD DEP BOUNDS =        1146.4811

            TOTAL IN =       97991.3047              TOTAL IN =        1246.4811

          OUT:                                     OUT:
          ----                                     ----
             STORAGE =        5945.9819               STORAGE =          51.4052
       CONSTANT HEAD =           0.0000         CONSTANT HEAD =           0.0000
               WELLS =           0.0000                 WELLS =           0.0000
     HEAD DEP BOUNDS =       92043.8750       HEAD DEP BOUNDS =        1195.0470

           TOTAL OUT =       97989.8594             TOTAL OUT =        1246.4523

            IN - OUT =           1.4453              IN - OUT =       2.8809E-02

 PERCENT DISCREPANCY =           0.00     PERCENT DISCREPANCY =           0.00






         TIME SUMMARY AT END OF TIME STEP   77 IN STRESS PERIOD    2
                    SECONDS     MINUTES      HOURS       DAYS        YEARS
                    -----------------------------------------------------------
   TIME STEP LENGTH  86400.      1440.0      24.000      1.0000     2.73785E-03
 STRESS PERIOD TIME 6.65280E+06 1.10880E+05  1848.0      77.000     0.21081    
         TOTAL TIME 6.73920E+06 1.12320E+05  1872.0      78.000     0.21355    
1
 
 SOLVING FOR HEAD 

 OUTPUT CONTROL FOR STRESS PERIOD    2   TIME STEP   78
    SAVE HEAD FOR ALL LAYERS
    SAVE DRAWDOWN FOR ALL LAYERS
    SAVE BUDGET
    PRINT HEAD FOR ALL LAYERS
    PRINT BUDGET
 UBDSV1 SAVING "         STORAGE" ON UNIT  53 AT TIME STEP 78, STRESS PERIOD   2
 UBDSV2 SAVING "   CONSTANT HEAD" ON UNIT  53 AT TIME STEP 78, STRESS PERIOD   2
 UBDSV1 SAVING "FLOW RIGHT FACE " ON UNIT  53 AT TIME STEP 78, STRESS PERIOD   2
 UBDSV1 SAVING "FLOW FRONT FACE " ON UNIT  53 AT TIME STEP 78, STRESS PERIOD   2
 UBDSV1 SAVING "FLOW LOWER FACE " ON UNIT  53 AT TIME STEP 78, STRESS PERIOD   2

 SAVING SATURATED THICKNESS AND FLOW TERMS ON UNIT   54 FOR MT3DMS
 BY THE LINK-MT3DMS PACKAGE V7 AT TIME STEP   78, STRESS PERIOD    2

1
              HEAD IN LAYER   1 AT END OF TIME STEP  78 IN STRESS PERIOD    2
  ---------------------------------------------------------------------------

            1           2           3           4           5           6           7           8           9          10
 ........................................................................................................................
   1    9.998       8.944       7.876       6.797       5.705       4.598       3.473       2.333       1.176      1.5339E-03
   2    9.998       8.946       7.881       6.804       5.715       4.609       3.483       2.339       1.180      1.5384E-03
   3    9.998       8.949       7.889       6.819       5.736       4.634       3.504       2.353       1.186      1.5475E-03
   4    9.998       8.954       7.901       6.841       5.773       4.684       3.542       2.375       1.196      1.5609E-03
   5    9.998       8.959       7.913       6.868       5.830       4.791       3.600       2.403       1.207      1.5756E-03
   6    9.998       8.962       7.920       6.888       5.898       5.087       3.670       2.423       1.213      1.5840E-03
   7    9.998       8.960       7.914       6.870       5.832       4.792       3.601       2.404       1.208      1.5763E-03
   8    9.998       8.955       7.903       6.844       5.777       4.688       3.545       2.378       1.198      1.5628E-03
   9    9.998       8.951       7.893       6.825       5.744       4.642       3.512       2.359       1.189      1.5513E-03
  10    9.998       8.949       7.888       6.815       5.728       4.623       3.496       2.349       1.185      1.5452E-03
1
              HEAD IN LAYER   2 AT END OF TIME STEP  78 IN STRESS PERIOD    2
  ---------------------------------------------------------------------------

            1           2           3           4           5           6           7           8           9          10
 ........................................................................................................................
   1    9.998       8.942       7.875       6.796       5.704       4.597       3.472       2.331       1.175      2.5230E-03
   2    9.998       8.944       7.879       6.803       5.714       4.608       3.482       2.338       1.178      2.5302E-03
   3    9.998       8.948       7.888       6.818       5.735       4.633       3.503       2.352       1.185      2.5447E-03
   4    9.998       8.953       7.900       6.840       5.773       4.683       3.541       2.374       1.195      2.5658E-03
   5    9.998       8.958       7.912       6.868       5.829       4.789       3.598       2.401       1.205      2.5891E-03
   6    9.998       8.960       7.919       6.887       5.897       5.126       3.667       2.421       1.212      2.6025E-03
   7    9.998       8.958       7.913       6.869       5.831       4.790       3.600       2.403       1.206      2.5905E-03
   8    9.998       8.954       7.902       6.844       5.776       4.688       3.544       2.377       1.196      2.5691E-03
   9    9.998       8.950       7.892       6.824       5.743       4.642       3.511       2.357       1.188      2.5508E-03
  10    9.998       8.948       7.886       6.814       5.728       4.622       3.495       2.348       1.183      2.5410E-03
1
              HEAD IN LAYER   3 AT END OF TIME STEP  78 IN STRESS PERIOD    2
  ---------------------------------------------------------------------------

            1           2           3           4           5           6           7           8           9          10
 ........................................................................................................................
   1    9.998       8.941       7.874       6.795       5.703       4.596       3.471       2.330       1.173      2.5733E-03
   2    9.998       8.943       7.878       6.802       5.713       4.607       3.481       2.337       1.177      2.5806E-03
   3    9.998       8.947       7.887       6.817       5.735       4.633       3.502       2.351       1.183      2.5955E-03
   4    9.998       8.952       7.899       6.840       5.772       4.682       3.540       2.373       1.193      2.6171E-03
   5    9.998       8.957       7.912       6.867       5.828       4.783       3.597       2.400       1.204      2.6408E-03
   6    9.998       8.959       7.919       6.887       5.891       5.016       3.660       2.420       1.210      2.6545E-03
   7    9.998       8.957       7.913       6.869       5.830       4.784       3.598       2.401       1.205      2.6423E-03
   8    9.998       8.953       7.901       6.843       5.776       4.687       3.544       2.376       1.195      2.6205E-03
   9    9.998       8.949       7.891       6.823       5.742       4.641       3.510       2.356       1.186      2.6019E-03
  10    9.998       8.947       7.886       6.813       5.727       4.622       3.494       2.346       1.182      2.5919E-03
1
              HEAD IN LAYER   4 AT END OF TIME STEP  78 IN STRESS PERIOD    2
  ---------------------------------------------------------------------------

            1           2           3           4           5           6           7           8           9          10
 ........................................................................................................................
   1    9.998       8.940       7.873       6.795       5.703       4.595       3.470       2.329       1.172      2.5735E-03
   2    9.998       8.942       7.877       6.802       5.713       4.606       3.480       2.336       1.176      2.5808E-03
   3    9.998       8.946       7.886       6.817       5.734       4.632       3.502       2.350       1.182      2.5957E-03
   4    9.998       8.951       7.898       6.839       5.771       4.682       3.539       2.372       1.192      2.6174E-03
   5    9.998       8.956       7.911       6.867       5.827       4.777       3.595       2.399       1.203      2.6412E-03
   6    9.998       8.959       7.918       6.886       5.885       4.952       3.654       2.419       1.209      2.6548E-03
   7    9.998       8.957       7.912       6.868       5.829       4.779       3.597       2.401       1.204      2.6426E-03
   8    9.998       8.952       7.901       6.843       5.776       4.686       3.543       2.375       1.194      2.6209E-03
   9    9.998       8.948       7.891       6.823       5.742       4.641       3.509       2.356       1.185      2.6023E-03
  10    9.998       8.946       7.885       6.813       5.727       4.621       3.494       2.346       1.181      2.5922E-03
1
              HEAD IN LAYER   5 AT END OF TIME STEP  78 IN STRESS PERIOD    2
  ---------------------------------------------------------------------------

            1           2           3           4           5           6           7           8           9          10
 ........................................................................................................................
   1    9.998       8.940       7.873       6.794       5.702       4.595       3.470       2.329       1.172      2.5726E-03
   2    9.998       8.942       7.877       6.801       5.712       4.606       3.480       2.335       1.175      2.5799E-03
   3    9.998       8.946       7.886       6.816       5.734       4.632       3.502       2.350       1.182      2.5949E-03
   4    9.998       8.951       7.898       6.839       5.771       4.681       3.539       2.372       1.192      2.6165E-03
   5    9.998       8.956       7.911       6.866       5.826       4.773       3.594       2.399       1.203      2.6403E-03
   6    9.998       8.958       7.918       6.885       5.882       4.923       3.651       2.418       1.209      2.6539E-03
   7    9.998       8.957       7.912       6.868       5.828       4.775       3.596       2.400       1.203      2.6418E-03
   8    9.998       8.952       7.900       6.842       5.775       4.685       3.543       2.375       1.194      2.6200E-03
   9    9.998       8.948       7.890       6.823       5.742       4.640       3.509       2.355       1.185      2.6014E-03
  10    9.998       8.946       7.885       6.813       5.726       4.621       3.493       2.345       1.180      2.5914E-03

 HEAD WILL BE SAVED ON UNIT   51 AT END OF TIME STEP   78, STRESS PERIOD    2

 DRAWDOWN WILL BE SAVED ON UNIT   52 AT END OF TIME STEP   78, STRESS PERIOD    2
1
  VOLUMETRIC BUDGET FOR ENTIRE MODEL AT END OF TIME STEP   78, STRESS PERIOD   2
  ------------------------------------------------------------------------------

     CUMULATIVE VOLUMES      L**3       RATES FOR THIS TIME STEP      L**3/T
     ------------------                 ------------------------

           IN:                                      IN:
           ---                                      ---
             STORAGE =           0.0000               STORAGE =           0.0000
       CONSTANT HEAD =           0.0000         CONSTANT HEAD =           0.0000
               WELLS =        7800.0000                 WELLS =         100.0000
     HEAD DEP BOUNDS =       91437.5234       HEAD DEP BOUNDS =        1146.2198

            TOTAL IN =       99237.5234              TOTAL IN =        1246.2198

          OUT:                                     OUT:
          ----                                     ----
             STORAGE =        5996.8149               STORAGE =          50.8332
       CONSTANT HEAD =           0.0000         CONSTANT HEAD =           0.0000
               WELLS =           0.0000                 WELLS =           0.0000
     HEAD DEP BOUNDS =       93239.2266       HEAD DEP BOUNDS =        1195.3501

           TOTAL OUT =       99236.0391             TOTAL OUT =        1246.1833

            IN - OUT =           1.4844              IN - OUT =       3.6499E-02

 PERCENT DISCREPANCY =           0.00     PERCENT DISCREPANCY =           0.00






         TIME SUMMARY AT END OF TIME STEP   78 IN STRESS PERIOD    2
                    SECONDS     MINUTES      HOURS       DAYS        YEARS
                    -----------------------------------------------------------
   TIME STEP LENGTH  86400.      1440.0      24.000      1.0000     2.73785E-03
 STRESS PERIOD TIME 6.73920E+06 1.12320E+05  1872.0      78.000     0.21355    
         TOTAL TIME 6.82560E+06 1.13760E+05  1896.0      79.000     0.21629    
1
 
 SOLVING FOR HEAD 

 OUTPUT CONTROL FOR STRESS PERIOD    2   TIME STEP   79
    SAVE HEAD FOR ALL LAYERS
    SAVE DRAWDOWN FOR ALL LAYERS
    SAVE BUDGET
    PRINT HEAD FOR ALL LAYERS
    PRINT BUDGET
 UBDSV1 SAVING "         STORAGE" ON UNIT  53 AT TIME STEP 79, STRESS PERIOD   2
 UBDSV2 SAVING "   CONSTANT HEAD" ON UNIT  53 AT TIME STEP 79, STRESS PERIOD   2
 UBDSV1 SAVING "FLOW RIGHT FACE " ON UNIT  53 AT TIME STEP 79, STRESS PERIOD   2
 UBDSV1 SAVING "FLOW FRONT FACE " ON UNIT  53 AT TIME STEP 79, STRESS PERIOD   2
 UBDSV1 SAVING "FLOW LOWER FACE " ON UNIT  53 AT TIME STEP 79, STRESS PERIOD   2

 SAVING SATURATED THICKNESS AND FLOW TERMS ON UNIT   54 FOR MT3DMS
 BY THE LINK-MT3DMS PACKAGE V7 AT TIME STEP   79, STRESS PERIOD    2

1
              HEAD IN LAYER   1 AT END OF TIME STEP  79 IN STRESS PERIOD    2
  ---------------------------------------------------------------------------

            1           2           3           4           5           6           7           8           9          10
 ........................................................................................................................
   1    9.998       8.944       7.877       6.798       5.706       4.598       3.474       2.333       1.177      1.5342E-03
   2    9.998       8.946       7.881       6.805       5.716       4.609       3.484       2.340       1.180      1.5387E-03
   3    9.998       8.949       7.889       6.819       5.737       4.635       3.505       2.354       1.187      1.5479E-03
   4    9.998       8.955       7.901       6.842       5.774       4.685       3.542       2.376       1.197      1.5613E-03
   5    9.998       8.959       7.914       6.869       5.831       4.792       3.600       2.403       1.207      1.5760E-03
   6    9.998       8.962       7.921       6.889       5.899       5.088       3.671       2.424       1.214      1.5845E-03
   7    9.998       8.960       7.915       6.870       5.833       4.793       3.602       2.404       1.208      1.5769E-03
   8    9.998       8.956       7.903       6.845       5.778       4.689       3.546       2.379       1.198      1.5634E-03
   9    9.998       8.952       7.894       6.826       5.744       4.643       3.512       2.359       1.190      1.5518E-03
  10    9.998       8.949       7.888       6.816       5.729       4.624       3.497       2.349       1.185      1.5456E-03
1
              HEAD IN LAYER   2 AT END OF TIME STEP  79 IN STRESS PERIOD    2
  ---------------------------------------------------------------------------

            1           2           3           4           5           6           7           8           9          10
 ........................................................................................................................
   1    9.998       8.942       7.875       6.797       5.705       4.597       3.473       2.332       1.175      2.5235E-03
   2    9.998       8.944       7.880       6.804       5.715       4.608       3.483       2.338       1.178      2.5307E-03
   3    9.998       8.948       7.888       6.818       5.736       4.634       3.504       2.352       1.185      2.5452E-03
   4    9.998       8.953       7.900       6.841       5.773       4.684       3.541       2.375       1.195      2.5665E-03
   5    9.998       8.958       7.913       6.868       5.830       4.790       3.599       2.402       1.206      2.5898E-03
   6    9.998       8.961       7.920       6.888       5.897       5.127       3.668       2.422       1.212      2.6033E-03
   7    9.998       8.959       7.914       6.870       5.832       4.791       3.601       2.403       1.206      2.5912E-03
   8    9.998       8.954       7.902       6.844       5.777       4.689       3.545       2.377       1.196      2.5698E-03
   9    9.998       8.950       7.892       6.825       5.744       4.642       3.511       2.358       1.188      2.5515E-03
  10    9.998       8.948       7.887       6.815       5.728       4.623       3.496       2.348       1.183      2.5417E-03
1
              HEAD IN LAYER   3 AT END OF TIME STEP  79 IN STRESS PERIOD    2
  ---------------------------------------------------------------------------

            1           2           3           4           5           6           7           8           9          10
 ........................................................................................................................
   1    9.998       8.941       7.874       6.796       5.704       4.596       3.472       2.330       1.173      2.5738E-03
   2    9.998       8.943       7.879       6.803       5.714       4.608       3.481       2.337       1.177      2.5811E-03
   3    9.998       8.947       7.887       6.818       5.735       4.633       3.503       2.351       1.184      2.5961E-03
   4    9.998       8.952       7.899       6.840       5.773       4.683       3.541       2.373       1.194      2.6178E-03
   5    9.998       8.957       7.912       6.868       5.829       4.783       3.598       2.401       1.204      2.6416E-03
   6    9.998       8.960       7.919       6.887       5.892       5.017       3.661       2.420       1.211      2.6553E-03
   7    9.998       8.958       7.913       6.869       5.831       4.785       3.599       2.402       1.205      2.6430E-03
   8    9.998       8.953       7.902       6.844       5.777       4.688       3.544       2.376       1.195      2.6212E-03
   9    9.998       8.949       7.892       6.824       5.743       4.642       3.511       2.357       1.187      2.6026E-03
  10    9.998       8.947       7.886       6.814       5.728       4.623       3.495       2.347       1.182      2.5925E-03
1
              HEAD IN LAYER   4 AT END OF TIME STEP  79 IN STRESS PERIOD    2
  ---------------------------------------------------------------------------

            1           2           3           4           5           6           7           8           9          10
 ........................................................................................................................
   1    9.998       8.940       7.873       6.795       5.703       4.596       3.471       2.329       1.173      2.5739E-03
   2    9.998       8.942       7.878       6.802       5.713       4.607       3.481       2.336       1.176      2.5813E-03
   3    9.998       8.946       7.887       6.817       5.735       4.633       3.502       2.350       1.183      2.5963E-03
   4    9.998       8.951       7.899       6.840       5.772       4.682       3.540       2.373       1.193      2.6181E-03
   5    9.998       8.957       7.911       6.867       5.828       4.778       3.596       2.400       1.204      2.6419E-03
   6    9.998       8.959       7.919       6.887       5.886       4.953       3.655       2.419       1.210      2.6555E-03
   7    9.998       8.957       7.913       6.869       5.830       4.779       3.598       2.401       1.204      2.6434E-03
   8    9.998       8.953       7.901       6.843       5.776       4.687       3.544       2.376       1.194      2.6216E-03
   9    9.998       8.949       7.891       6.824       5.743       4.641       3.510       2.356       1.186      2.6029E-03
  10    9.998       8.946       7.885       6.813       5.727       4.622       3.494       2.346       1.181      2.5929E-03
1
              HEAD IN LAYER   5 AT END OF TIME STEP  79 IN STRESS PERIOD    2
  ---------------------------------------------------------------------------

            1           2           3           4           5           6           7           8           9          10
 ........................................................................................................................
   1    9.998       8.940       7.873       6.795       5.703       4.595       3.471       2.329       1.172      2.5730E-03
   2    9.998       8.942       7.878       6.802       5.713       4.607       3.480       2.336       1.175      2.5804E-03
   3    9.998       8.946       7.886       6.817       5.735       4.633       3.502       2.350       1.182      2.5954E-03
   4    9.998       8.951       7.898       6.840       5.772       4.682       3.540       2.372       1.192      2.6172E-03
   5    9.998       8.956       7.911       6.867       5.827       4.774       3.595       2.399       1.203      2.6410E-03
   6    9.998       8.959       7.918       6.886       5.883       4.924       3.652       2.419       1.209      2.6546E-03
   7    9.998       8.957       7.912       6.869       5.829       4.776       3.597       2.401       1.204      2.6425E-03
   8    9.998       8.952       7.901       6.843       5.776       4.686       3.544       2.375       1.194      2.6207E-03
   9    9.998       8.948       7.891       6.823       5.743       4.641       3.510       2.356       1.185      2.6021E-03
  10    9.998       8.946       7.885       6.813       5.727       4.622       3.494       2.346       1.181      2.5920E-03

 HEAD WILL BE SAVED ON UNIT   51 AT END OF TIME STEP   79, STRESS PERIOD    2

 DRAWDOWN WILL BE SAVED ON UNIT   52 AT END OF TIME STEP   79, STRESS PERIOD    2
1
  VOLUMETRIC BUDGET FOR ENTIRE MODEL AT END OF TIME STEP   79, STRESS PERIOD   2
  ------------------------------------------------------------------------------

     CUMULATIVE VOLUMES      L**3       RATES FOR THIS TIME STEP      L**3/T
     ------------------                 ------------------------

           IN:                                      IN:
           ---                                      ---
             STORAGE =           0.0000               STORAGE =           0.0000
       CONSTANT HEAD =           0.0000         CONSTANT HEAD =           0.0000
               WELLS =        7900.0000                 WELLS =         100.0000
     HEAD DEP BOUNDS =       92583.4844       HEAD DEP BOUNDS =        1145.9609

            TOTAL IN =      100483.4844              TOTAL IN =        1245.9609

          OUT:                                     OUT:
          ----                                     ----
             STORAGE =        6047.0820               STORAGE =          50.2670
       CONSTANT HEAD =           0.0000         CONSTANT HEAD =           0.0000
               WELLS =           0.0000                 WELLS =           0.0000
     HEAD DEP BOUNDS =       94434.8828       HEAD DEP BOUNDS =        1195.6525

           TOTAL OUT =      100481.9688             TOTAL OUT =        1245.9194

            IN - OUT =           1.5156              IN - OUT =       4.1504E-02

 PERCENT DISCREPANCY =           0.00     PERCENT DISCREPANCY =           0.00






         TIME SUMMARY AT END OF TIME STEP   79 IN STRESS PERIOD    2
                    SECONDS     MINUTES      HOURS       DAYS        YEARS
                    -----------------------------------------------------------
   TIME STEP LENGTH  86400.      1440.0      24.000      1.0000     2.73785E-03
 STRESS PERIOD TIME 6.82560E+06 1.13760E+05  1896.0      79.000     0.21629    
         TOTAL TIME 6.91200E+06 1.15200E+05  1920.0      80.000     0.21903    
1
 
 SOLVING FOR HEAD 

 OUTPUT CONTROL FOR STRESS PERIOD    2   TIME STEP   80
    SAVE HEAD FOR ALL LAYERS
    SAVE DRAWDOWN FOR ALL LAYERS
    SAVE BUDGET
    PRINT HEAD FOR ALL LAYERS
    PRINT BUDGET
 UBDSV1 SAVING "         STORAGE" ON UNIT  53 AT TIME STEP 80, STRESS PERIOD   2
 UBDSV2 SAVING "   CONSTANT HEAD" ON UNIT  53 AT TIME STEP 80, STRESS PERIOD   2
 UBDSV1 SAVING "FLOW RIGHT FACE " ON UNIT  53 AT TIME STEP 80, STRESS PERIOD   2
 UBDSV1 SAVING "FLOW FRONT FACE " ON UNIT  53 AT TIME STEP 80, STRESS PERIOD   2
 UBDSV1 SAVING "FLOW LOWER FACE " ON UNIT  53 AT TIME STEP 80, STRESS PERIOD   2

 SAVING SATURATED THICKNESS AND FLOW TERMS ON UNIT   54 FOR MT3DMS
 BY THE LINK-MT3DMS PACKAGE V7 AT TIME STEP   80, STRESS PERIOD    2

1
              HEAD IN LAYER   1 AT END OF TIME STEP  80 IN STRESS PERIOD    2
  ---------------------------------------------------------------------------

            1           2           3           4           5           6           7           8           9          10
 ........................................................................................................................
   1    9.998       8.944       7.877       6.798       5.706       4.599       3.475       2.333       1.177      1.5346E-03
   2    9.998       8.946       7.881       6.805       5.716       4.610       3.484       2.340       1.180      1.5390E-03
   3    9.998       8.950       7.890       6.820       5.738       4.636       3.506       2.354       1.187      1.5483E-03
   4    9.998       8.955       7.902       6.842       5.775       4.686       3.543       2.376       1.197      1.5617E-03
   5    9.998       8.960       7.914       6.870       5.832       4.793       3.601       2.404       1.208      1.5765E-03
   6    9.998       8.962       7.921       6.890       5.900       5.089       3.672       2.424       1.214      1.5851E-03
   7    9.998       8.960       7.915       6.871       5.833       4.794       3.603       2.405       1.208      1.5773E-03
   8    9.998       8.956       7.904       6.846       5.779       4.690       3.547       2.379       1.198      1.5638E-03
   9    9.998       8.952       7.894       6.826       5.745       4.644       3.513       2.360       1.190      1.5522E-03
  10    9.998       8.949       7.889       6.816       5.730       4.625       3.497       2.350       1.185      1.5460E-03
1
              HEAD IN LAYER   2 AT END OF TIME STEP  80 IN STRESS PERIOD    2
  ---------------------------------------------------------------------------

            1           2           3           4           5           6           7           8           9          10
 ........................................................................................................................
   1    9.998       8.942       7.876       6.797       5.705       4.598       3.473       2.332       1.175      2.5239E-03
   2    9.998       8.944       7.880       6.804       5.715       4.609       3.483       2.339       1.179      2.5312E-03
   3    9.998       8.948       7.889       6.819       5.737       4.635       3.505       2.353       1.185      2.5458E-03
   4    9.998       8.953       7.901       6.842       5.774       4.685       3.542       2.375       1.195      2.5671E-03
   5    9.998       8.958       7.913       6.869       5.831       4.790       3.600       2.403       1.206      2.5905E-03
   6    9.998       8.961       7.920       6.889       5.898       5.128       3.669       2.423       1.212      2.6041E-03
   7    9.998       8.959       7.914       6.871       5.833       4.792       3.602       2.404       1.207      2.5920E-03
   8    9.998       8.955       7.903       6.845       5.778       4.689       3.546       2.378       1.197      2.5705E-03
   9    9.998       8.950       7.893       6.825       5.745       4.643       3.512       2.359       1.188      2.5522E-03
  10    9.998       8.948       7.887       6.815       5.729       4.624       3.497       2.349       1.184      2.5423E-03
1
              HEAD IN LAYER   3 AT END OF TIME STEP  80 IN STRESS PERIOD    2
  ---------------------------------------------------------------------------

            1           2           3           4           5           6           7           8           9          10
 ........................................................................................................................
   1    9.998       8.941       7.875       6.796       5.704       4.597       3.472       2.331       1.174      2.5742E-03
   2    9.998       8.943       7.879       6.803       5.714       4.608       3.482       2.338       1.177      2.5816E-03
   3    9.998       8.947       7.888       6.818       5.736       4.634       3.504       2.352       1.184      2.5966E-03
   4    9.998       8.952       7.900       6.841       5.773       4.684       3.541       2.374       1.194      2.6184E-03
   5    9.998       8.957       7.913       6.868       5.830       4.784       3.598       2.401       1.205      2.6423E-03
   6    9.998       8.960       7.920       6.888       5.893       5.018       3.662       2.421       1.211      2.6560E-03
   7    9.998       8.958       7.914       6.870       5.832       4.786       3.600       2.403       1.205      2.6438E-03
   8    9.998       8.954       7.902       6.844       5.778       4.688       3.545       2.377       1.195      2.6219E-03
   9    9.998       8.949       7.892       6.825       5.744       4.643       3.511       2.357       1.187      2.6033E-03
  10    9.998       8.947       7.886       6.815       5.728       4.623       3.496       2.348       1.182      2.5932E-03
1
              HEAD IN LAYER   4 AT END OF TIME STEP  80 IN STRESS PERIOD    2
  ---------------------------------------------------------------------------

            1           2           3           4           5           6           7           8           9          10
 ........................................................................................................................
   1    9.998       8.941       7.874       6.795       5.704       4.596       3.471       2.330       1.173      2.5744E-03
   2    9.998       8.943       7.878       6.803       5.714       4.608       3.481       2.337       1.176      2.5818E-03
   3    9.998       8.947       7.887       6.818       5.736       4.634       3.503       2.351       1.183      2.5969E-03
   4    9.998       8.952       7.899       6.840       5.773       4.683       3.541       2.373       1.193      2.6187E-03
   5    9.998       8.957       7.912       6.868       5.829       4.778       3.597       2.400       1.204      2.6426E-03
   6    9.998       8.959       7.919       6.887       5.887       4.954       3.656       2.420       1.210      2.6562E-03
   7    9.998       8.957       7.913       6.870       5.831       4.780       3.599       2.402       1.205      2.6441E-03
   8    9.998       8.953       7.902       6.844       5.777       4.688       3.545       2.376       1.195      2.6223E-03
   9    9.998       8.949       7.892       6.824       5.744       4.642       3.511       2.357       1.186      2.6036E-03
  10    9.998       8.946       7.886       6.814       5.728       4.623       3.495       2.347       1.181      2.5935E-03
1
              HEAD IN LAYER   5 AT END OF TIME STEP  80 IN STRESS PERIOD    2
  ---------------------------------------------------------------------------

            1           2           3           4           5           6           7           8           9          10
 ........................................................................................................................
   1    9.998       8.940       7.873       6.795       5.703       4.596       3.471       2.329       1.172      2.5735E-03
   2    9.998       8.942       7.878       6.802       5.713       4.607       3.481       2.336       1.176      2.5809E-03
   3    9.998       8.946       7.887       6.817       5.735       4.633       3.503       2.351       1.183      2.5960E-03
   4    9.998       8.951       7.899       6.840       5.773       4.683       3.540       2.373       1.193      2.6178E-03
   5    9.998       8.956       7.912       6.868       5.828       4.775       3.596       2.400       1.203      2.6417E-03
   6    9.998       8.959       7.919       6.887       5.884       4.924       3.652       2.419       1.210      2.6553E-03
   7    9.998       8.957       7.913       6.869       5.830       4.777       3.598       2.401       1.204      2.6432E-03
   8    9.998       8.953       7.901       6.844       5.777       4.687       3.544       2.376       1.194      2.6214E-03
   9    9.998       8.949       7.891       6.824       5.744       4.642       3.511       2.356       1.186      2.6028E-03
  10    9.998       8.946       7.886       6.814       5.728       4.623       3.495       2.346       1.181      2.5927E-03

 HEAD WILL BE SAVED ON UNIT   51 AT END OF TIME STEP   80, STRESS PERIOD    2

 DRAWDOWN WILL BE SAVED ON UNIT   52 AT END OF TIME STEP   80, STRESS PERIOD    2
1
  VOLUMETRIC BUDGET FOR ENTIRE MODEL AT END OF TIME STEP   80, STRESS PERIOD   2
  ------------------------------------------------------------------------------

     CUMULATIVE VOLUMES      L**3       RATES FOR THIS TIME STEP      L**3/T
     ------------------                 ------------------------

           IN:                                      IN:
           ---                                      ---
             STORAGE =           0.0000               STORAGE =           0.0000
       CONSTANT HEAD =           0.0000         CONSTANT HEAD =           0.0000
               WELLS =        8000.0000                 WELLS =         100.0000
     HEAD DEP BOUNDS =       93729.1875       HEAD DEP BOUNDS =        1145.7042

            TOTAL IN =      101729.1875              TOTAL IN =        1245.7042

          OUT:                                     OUT:
          ----                                     ----
             STORAGE =        6096.7954               STORAGE =          49.7133
       CONSTANT HEAD =           0.0000         CONSTANT HEAD =           0.0000
               WELLS =           0.0000                 WELLS =           0.0000
     HEAD DEP BOUNDS =       95630.8359       HEAD DEP BOUNDS =        1195.9495

           TOTAL OUT =      101727.6328             TOTAL OUT =        1245.6628

            IN - OUT =           1.5547              IN - OUT =       4.1382E-02

 PERCENT DISCREPANCY =           0.00     PERCENT DISCREPANCY =           0.00






         TIME SUMMARY AT END OF TIME STEP   80 IN STRESS PERIOD    2
                    SECONDS     MINUTES      HOURS       DAYS        YEARS
                    -----------------------------------------------------------
   TIME STEP LENGTH  86400.      1440.0      24.000      1.0000     2.73785E-03
 STRESS PERIOD TIME 6.91200E+06 1.15200E+05  1920.0      80.000     0.21903    
         TOTAL TIME 6.99840E+06 1.16640E+05  1944.0      81.000     0.22177    
1
 
 SOLVING FOR HEAD 

 OUTPUT CONTROL FOR STRESS PERIOD    2   TIME STEP   81
    SAVE HEAD FOR ALL LAYERS
    SAVE DRAWDOWN FOR ALL LAYERS
    SAVE BUDGET
    PRINT HEAD FOR ALL LAYERS
    PRINT BUDGET
 UBDSV1 SAVING "         STORAGE" ON UNIT  53 AT TIME STEP 81, STRESS PERIOD   2
 UBDSV2 SAVING "   CONSTANT HEAD" ON UNIT  53 AT TIME STEP 81, STRESS PERIOD   2
 UBDSV1 SAVING "FLOW RIGHT FACE " ON UNIT  53 AT TIME STEP 81, STRESS PERIOD   2
 UBDSV1 SAVING "FLOW FRONT FACE " ON UNIT  53 AT TIME STEP 81, STRESS PERIOD   2
 UBDSV1 SAVING "FLOW LOWER FACE " ON UNIT  53 AT TIME STEP 81, STRESS PERIOD   2

 SAVING SATURATED THICKNESS AND FLOW TERMS ON UNIT   54 FOR MT3DMS
 BY THE LINK-MT3DMS PACKAGE V7 AT TIME STEP   81, STRESS PERIOD    2

1
              HEAD IN LAYER   1 AT END OF TIME STEP  81 IN STRESS PERIOD    2
  ---------------------------------------------------------------------------

            1           2           3           4           5           6           7           8           9          10
 ........................................................................................................................
   1    9.998       8.944       7.877       6.799       5.707       4.600       3.475       2.334       1.177      1.5348E-03
   2    9.998       8.946       7.882       6.806       5.717       4.611       3.485       2.341       1.180      1.5394E-03
   3    9.998       8.950       7.890       6.821       5.738       4.637       3.506       2.355       1.187      1.5486E-03
   4    9.998       8.955       7.902       6.843       5.776       4.687       3.544       2.377       1.197      1.5622E-03
   5    9.998       8.960       7.915       6.870       5.833       4.793       3.602       2.404       1.208      1.5769E-03
   6    9.998       8.962       7.922       6.890       5.901       5.090       3.672       2.425       1.214      1.5855E-03
   7    9.998       8.960       7.916       6.872       5.834       4.795       3.604       2.406       1.209      1.5778E-03
   8    9.998       8.956       7.905       6.846       5.780       4.691       3.548       2.380       1.199      1.5643E-03
   9    9.998       8.952       7.895       6.827       5.746       4.645       3.514       2.360       1.190      1.5527E-03
  10    9.998       8.950       7.889       6.817       5.731       4.626       3.498       2.350       1.186      1.5464E-03
1
              HEAD IN LAYER   2 AT END OF TIME STEP  81 IN STRESS PERIOD    2
  ---------------------------------------------------------------------------

            1           2           3           4           5           6           7           8           9          10
 ........................................................................................................................
   1    9.998       8.943       7.876       6.798       5.706       4.598       3.474       2.332       1.175      2.5244E-03
   2    9.998       8.945       7.880       6.805       5.716       4.610       3.484       2.339       1.179      2.5317E-03
   3    9.998       8.948       7.889       6.820       5.737       4.636       3.505       2.353       1.186      2.5464E-03
   4    9.998       8.954       7.901       6.842       5.775       4.686       3.543       2.376       1.196      2.5678E-03
   5    9.998       8.959       7.914       6.870       5.832       4.791       3.601       2.403       1.206      2.5913E-03
   6    9.998       8.961       7.921       6.890       5.899       5.129       3.670       2.423       1.213      2.6048E-03
   7    9.998       8.959       7.915       6.871       5.834       4.793       3.602       2.404       1.207      2.5927E-03
   8    9.998       8.955       7.904       6.846       5.779       4.690       3.547       2.379       1.197      2.5712E-03
   9    9.998       8.951       7.893       6.826       5.745       4.644       3.513       2.359       1.189      2.5529E-03
  10    9.998       8.948       7.888       6.816       5.730       4.625       3.497       2.349       1.184      2.5430E-03
1
              HEAD IN LAYER   3 AT END OF TIME STEP  81 IN STRESS PERIOD    2
  ---------------------------------------------------------------------------

            1           2           3           4           5           6           7           8           9          10
 ........................................................................................................................
   1    9.998       8.941       7.875       6.797       5.705       4.597       3.473       2.331       1.174      2.5747E-03
   2    9.998       8.943       7.879       6.804       5.715       4.609       3.483       2.338       1.177      2.5821E-03
   3    9.998       8.947       7.888       6.819       5.737       4.635       3.504       2.352       1.184      2.5972E-03
   4    9.998       8.953       7.900       6.842       5.774       4.685       3.542       2.374       1.194      2.6190E-03
   5    9.998       8.958       7.913       6.869       5.831       4.785       3.599       2.402       1.205      2.6430E-03
   6    9.998       8.960       7.920       6.889       5.893       5.019       3.663       2.422       1.211      2.6567E-03
   7    9.998       8.958       7.914       6.871       5.833       4.787       3.601       2.403       1.206      2.6445E-03
   8    9.998       8.954       7.903       6.845       5.778       4.689       3.546       2.378       1.196      2.6226E-03
   9    9.998       8.950       7.893       6.825       5.745       4.643       3.512       2.358       1.187      2.6039E-03
  10    9.998       8.947       7.887       6.815       5.729       4.624       3.496       2.348       1.183      2.5938E-03
1
              HEAD IN LAYER   4 AT END OF TIME STEP  81 IN STRESS PERIOD    2
  ---------------------------------------------------------------------------

            1           2           3           4           5           6           7           8           9          10
 ........................................................................................................................
   1    9.998       8.941       7.874       6.796       5.704       4.597       3.472       2.330       1.173      2.5749E-03
   2    9.998       8.943       7.879       6.803       5.714       4.608       3.482       2.337       1.176      2.5823E-03
   3    9.998       8.947       7.887       6.818       5.736       4.634       3.504       2.351       1.183      2.5974E-03
   4    9.998       8.952       7.900       6.841       5.774       4.684       3.541       2.374       1.193      2.6193E-03
   5    9.998       8.957       7.912       6.869       5.830       4.779       3.598       2.401       1.204      2.6433E-03
   6    9.998       8.960       7.920       6.888       5.888       4.955       3.657       2.420       1.210      2.6570E-03
   7    9.998       8.958       7.914       6.870       5.831       4.781       3.599       2.402       1.205      2.6448E-03
   8    9.998       8.953       7.902       6.845       5.778       4.689       3.545       2.377       1.195      2.6230E-03
   9    9.998       8.949       7.892       6.825       5.745       4.643       3.512       2.357       1.186      2.6043E-03
  10    9.998       8.947       7.886       6.815       5.729       4.624       3.496       2.347       1.182      2.5942E-03
1
              HEAD IN LAYER   5 AT END OF TIME STEP  81 IN STRESS PERIOD    2
  ---------------------------------------------------------------------------

            1           2           3           4           5           6           7           8           9          10
 ........................................................................................................................
   1    9.998       8.940       7.874       6.796       5.704       4.597       3.472       2.330       1.173      2.5739E-03
   2    9.998       8.942       7.878       6.803       5.714       4.608       3.482       2.337       1.176      2.5814E-03
   3    9.998       8.946       7.887       6.818       5.736       4.634       3.503       2.351       1.183      2.5965E-03
   4    9.998       8.952       7.899       6.841       5.773       4.683       3.541       2.373       1.193      2.6184E-03
   5    9.998       8.957       7.912       6.868       5.829       4.776       3.597       2.401       1.204      2.6424E-03
   6    9.998       8.959       7.919       6.888       5.885       4.925       3.653       2.420       1.210      2.6560E-03
   7    9.998       8.957       7.913       6.870       5.831       4.778       3.599       2.402       1.204      2.6440E-03
   8    9.998       8.953       7.902       6.845       5.778       4.688       3.545       2.376       1.194      2.6221E-03
   9    9.998       8.949       7.892       6.825       5.744       4.643       3.511       2.357       1.186      2.6034E-03
  10    9.998       8.946       7.886       6.815       5.729       4.624       3.496       2.347       1.181      2.5933E-03

 HEAD WILL BE SAVED ON UNIT   51 AT END OF TIME STEP   81, STRESS PERIOD    2

 DRAWDOWN WILL BE SAVED ON UNIT   52 AT END OF TIME STEP   81, STRESS PERIOD    2
1
  VOLUMETRIC BUDGET FOR ENTIRE MODEL AT END OF TIME STEP   81, STRESS PERIOD   2
  ------------------------------------------------------------------------------

     CUMULATIVE VOLUMES      L**3       RATES FOR THIS TIME STEP      L**3/T
     ------------------                 ------------------------

           IN:                                      IN:
           ---                                      ---
             STORAGE =           0.0000               STORAGE =           0.0000
       CONSTANT HEAD =           0.0000         CONSTANT HEAD =           0.0000
               WELLS =        8100.0000                 WELLS =         100.0000
     HEAD DEP BOUNDS =       94874.6328       HEAD DEP BOUNDS =        1145.4429

            TOTAL IN =      102974.6328              TOTAL IN =        1245.4429

          OUT:                                     OUT:
          ----                                     ----
             STORAGE =        6145.9492               STORAGE =          49.1539
       CONSTANT HEAD =           0.0000         CONSTANT HEAD =           0.0000
               WELLS =           0.0000                 WELLS =           0.0000
     HEAD DEP BOUNDS =       96827.0781       HEAD DEP BOUNDS =        1196.2438

           TOTAL OUT =      102973.0312             TOTAL OUT =        1245.3977

            IN - OUT =           1.6016              IN - OUT =       4.5166E-02

 PERCENT DISCREPANCY =           0.00     PERCENT DISCREPANCY =           0.00






         TIME SUMMARY AT END OF TIME STEP   81 IN STRESS PERIOD    2
                    SECONDS     MINUTES      HOURS       DAYS        YEARS
                    -----------------------------------------------------------
   TIME STEP LENGTH  86400.      1440.0      24.000      1.0000     2.73785E-03
 STRESS PERIOD TIME 6.99840E+06 1.16640E+05  1944.0      81.000     0.22177    
         TOTAL TIME 7.08480E+06 1.18080E+05  1968.0      82.000     0.22450    
1
 
 SOLVING FOR HEAD 

 OUTPUT CONTROL FOR STRESS PERIOD    2   TIME STEP   82
    SAVE HEAD FOR ALL LAYERS
    SAVE DRAWDOWN FOR ALL LAYERS
    SAVE BUDGET
    PRINT HEAD FOR ALL LAYERS
    PRINT BUDGET
 UBDSV1 SAVING "         STORAGE" ON UNIT  53 AT TIME STEP 82, STRESS PERIOD   2
 UBDSV2 SAVING "   CONSTANT HEAD" ON UNIT  53 AT TIME STEP 82, STRESS PERIOD   2
 UBDSV1 SAVING "FLOW RIGHT FACE " ON UNIT  53 AT TIME STEP 82, STRESS PERIOD   2
 UBDSV1 SAVING "FLOW FRONT FACE " ON UNIT  53 AT TIME STEP 82, STRESS PERIOD   2
 UBDSV1 SAVING "FLOW LOWER FACE " ON UNIT  53 AT TIME STEP 82, STRESS PERIOD   2

 SAVING SATURATED THICKNESS AND FLOW TERMS ON UNIT   54 FOR MT3DMS
 BY THE LINK-MT3DMS PACKAGE V7 AT TIME STEP   82, STRESS PERIOD    2

1
              HEAD IN LAYER   1 AT END OF TIME STEP  82 IN STRESS PERIOD    2
  ---------------------------------------------------------------------------

            1           2           3           4           5           6           7           8           9          10
 ........................................................................................................................
   1    9.998       8.944       7.878       6.799       5.707       4.600       3.476       2.334       1.177      1.5351E-03
   2    9.998       8.946       7.882       6.806       5.717       4.611       3.485       2.341       1.181      1.5397E-03
   3    9.998       8.950       7.891       6.821       5.739       4.637       3.507       2.355       1.187      1.5490E-03
   4    9.998       8.955       7.903       6.844       5.776       4.688       3.545       2.377       1.197      1.5626E-03
   5    9.998       8.960       7.915       6.871       5.833       4.794       3.603       2.405       1.208      1.5774E-03
   6    9.998       8.963       7.922       6.891       5.902       5.091       3.673       2.425       1.215      1.5860E-03
   7    9.998       8.961       7.916       6.873       5.835       4.796       3.605       2.406       1.209      1.5782E-03
   8    9.998       8.956       7.905       6.847       5.780       4.692       3.549       2.380       1.199      1.5647E-03
   9    9.998       8.952       7.895       6.828       5.747       4.646       3.515       2.361       1.190      1.5531E-03
  10    9.998       8.950       7.889       6.817       5.731       4.626       3.499       2.351       1.186      1.5469E-03
1
              HEAD IN LAYER   2 AT END OF TIME STEP  82 IN STRESS PERIOD    2
  ---------------------------------------------------------------------------

            1           2           3           4           5           6           7           8           9          10
 ........................................................................................................................
   1    9.998       8.943       7.876       6.798       5.706       4.599       3.474       2.333       1.176      2.5249E-03
   2    9.998       8.945       7.881       6.805       5.716       4.610       3.484       2.340       1.179      2.5321E-03
   3    9.998       8.949       7.889       6.820       5.738       4.636       3.506       2.354       1.186      2.5469E-03
   4    9.998       8.954       7.902       6.843       5.776       4.687       3.544       2.376       1.196      2.5684E-03
   5    9.998       8.959       7.914       6.871       5.833       4.792       3.602       2.404       1.207      2.5920E-03
   6    9.998       8.961       7.921       6.890       5.900       5.130       3.671       2.424       1.213      2.6055E-03
   7    9.998       8.959       7.915       6.872       5.835       4.794       3.603       2.405       1.208      2.5934E-03
   8    9.998       8.955       7.904       6.846       5.780       4.691       3.548       2.379       1.197      2.5719E-03
   9    9.998       8.951       7.894       6.827       5.746       4.645       3.514       2.360       1.189      2.5535E-03
  10    9.998       8.949       7.888       6.817       5.731       4.626       3.498       2.350       1.184      2.5436E-03
1
              HEAD IN LAYER   3 AT END OF TIME STEP  82 IN STRESS PERIOD    2
  ---------------------------------------------------------------------------

            1           2           3           4           5           6           7           8           9          10
 ........................................................................................................................
   1    9.998       8.942       7.875       6.797       5.705       4.598       3.473       2.331       1.174      2.5752E-03
   2    9.998       8.944       7.880       6.804       5.715       4.609       3.483       2.338       1.178      2.5826E-03
   3    9.998       8.948       7.888       6.819       5.737       4.635       3.505       2.353       1.184      2.5978E-03
   4    9.998       8.953       7.901       6.842       5.775       4.686       3.543       2.375       1.194      2.6197E-03
   5    9.998       8.958       7.914       6.870       5.831       4.786       3.600       2.402       1.205      2.6437E-03
   6    9.998       8.960       7.921       6.889       5.894       5.020       3.664       2.422       1.212      2.6575E-03
   7    9.998       8.958       7.915       6.871       5.833       4.788       3.602       2.404       1.206      2.6452E-03
   8    9.998       8.954       7.903       6.846       5.779       4.690       3.547       2.378       1.196      2.6233E-03
   9    9.998       8.950       7.893       6.826       5.746       4.644       3.513       2.359       1.188      2.6046E-03
  10    9.998       8.948       7.887       6.816       5.730       4.625       3.497       2.349       1.183      2.5945E-03
1
              HEAD IN LAYER   4 AT END OF TIME STEP  82 IN STRESS PERIOD    2
  ---------------------------------------------------------------------------

            1           2           3           4           5           6           7           8           9          10
 ........................................................................................................................
   1    9.998       8.941       7.874       6.796       5.705       4.597       3.472       2.331       1.173      2.5753E-03
   2    9.998       8.943       7.879       6.804       5.715       4.609       3.482       2.337       1.177      2.5828E-03
   3    9.998       8.947       7.888       6.819       5.737       4.635       3.504       2.352       1.184      2.5980E-03
   4    9.998       8.952       7.900       6.842       5.774       4.685       3.542       2.374       1.194      2.6199E-03
   5    9.998       8.957       7.913       6.869       5.830       4.780       3.598       2.402       1.204      2.6439E-03
   6    9.998       8.960       7.920       6.889       5.889       4.956       3.657       2.421       1.211      2.6577E-03
   7    9.998       8.958       7.914       6.871       5.832       4.782       3.600       2.403       1.205      2.6455E-03
   8    9.998       8.954       7.903       6.845       5.779       4.689       3.546       2.377       1.195      2.6237E-03
   9    9.998       8.949       7.892       6.826       5.745       4.644       3.512       2.358       1.187      2.6049E-03
  10    9.998       8.947       7.887       6.815       5.730       4.625       3.497       2.348       1.182      2.5948E-03
1
              HEAD IN LAYER   5 AT END OF TIME STEP  82 IN STRESS PERIOD    2
  ---------------------------------------------------------------------------

            1           2           3           4           5           6           7           8           9          10
 ........................................................................................................................
   1    9.998       8.941       7.874       6.796       5.705       4.597       3.472       2.330       1.173      2.5744E-03
   2    9.998       8.943       7.879       6.803       5.715       4.609       3.482       2.337       1.176      2.5819E-03
   3    9.998       8.947       7.887       6.819       5.737       4.635       3.504       2.351       1.183      2.5971E-03
   4    9.998       8.952       7.900       6.841       5.774       4.684       3.542       2.374       1.193      2.6191E-03
   5    9.998       8.957       7.913       6.869       5.830       4.777       3.598       2.401       1.204      2.6431E-03
   6    9.998       8.960       7.920       6.888       5.885       4.926       3.654       2.420       1.210      2.6567E-03
   7    9.998       8.958       7.914       6.871       5.832       4.779       3.599       2.403       1.205      2.6447E-03
   8    9.998       8.953       7.902       6.845       5.779       4.689       3.546       2.377       1.195      2.6228E-03
   9    9.998       8.949       7.892       6.825       5.745       4.644       3.512       2.357       1.186      2.6041E-03
  10    9.998       8.947       7.887       6.815       5.729       4.624       3.496       2.348       1.182      2.5939E-03

 HEAD WILL BE SAVED ON UNIT   51 AT END OF TIME STEP   82, STRESS PERIOD    2

 DRAWDOWN WILL BE SAVED ON UNIT   52 AT END OF TIME STEP   82, STRESS PERIOD    2
1
  VOLUMETRIC BUDGET FOR ENTIRE MODEL AT END OF TIME STEP   82, STRESS PERIOD   2
  ------------------------------------------------------------------------------

     CUMULATIVE VOLUMES      L**3       RATES FOR THIS TIME STEP      L**3/T
     ------------------                 ------------------------

           IN:                                      IN:
           ---                                      ---
             STORAGE =           0.0000               STORAGE =           0.0000
       CONSTANT HEAD =           0.0000         CONSTANT HEAD =           0.0000
               WELLS =        8200.0000                 WELLS =         100.0000
     HEAD DEP BOUNDS =       96019.8125       HEAD DEP BOUNDS =        1145.1836

            TOTAL IN =      104219.8125              TOTAL IN =        1245.1836

          OUT:                                     OUT:
          ----                                     ----
             STORAGE =        6194.5591               STORAGE =          48.6097
       CONSTANT HEAD =           0.0000         CONSTANT HEAD =           0.0000
               WELLS =           0.0000                 WELLS =           0.0000
     HEAD DEP BOUNDS =       98023.6094       HEAD DEP BOUNDS =        1196.5337

           TOTAL OUT =      104218.1719             TOTAL OUT =        1245.1434

            IN - OUT =           1.6406              IN - OUT =       4.0161E-02

 PERCENT DISCREPANCY =           0.00     PERCENT DISCREPANCY =           0.00






         TIME SUMMARY AT END OF TIME STEP   82 IN STRESS PERIOD    2
                    SECONDS     MINUTES      HOURS       DAYS        YEARS
                    -----------------------------------------------------------
   TIME STEP LENGTH  86400.      1440.0      24.000      1.0000     2.73785E-03
 STRESS PERIOD TIME 7.08480E+06 1.18080E+05  1968.0      82.000     0.22450    
         TOTAL TIME 7.17120E+06 1.19520E+05  1992.0      83.000     0.22724    
1
 
 SOLVING FOR HEAD 

 OUTPUT CONTROL FOR STRESS PERIOD    2   TIME STEP   83
    SAVE HEAD FOR ALL LAYERS
    SAVE DRAWDOWN FOR ALL LAYERS
    SAVE BUDGET
    PRINT HEAD FOR ALL LAYERS
    PRINT BUDGET
 UBDSV1 SAVING "         STORAGE" ON UNIT  53 AT TIME STEP 83, STRESS PERIOD   2
 UBDSV2 SAVING "   CONSTANT HEAD" ON UNIT  53 AT TIME STEP 83, STRESS PERIOD   2
 UBDSV1 SAVING "FLOW RIGHT FACE " ON UNIT  53 AT TIME STEP 83, STRESS PERIOD   2
 UBDSV1 SAVING "FLOW FRONT FACE " ON UNIT  53 AT TIME STEP 83, STRESS PERIOD   2
 UBDSV1 SAVING "FLOW LOWER FACE " ON UNIT  53 AT TIME STEP 83, STRESS PERIOD   2

 SAVING SATURATED THICKNESS AND FLOW TERMS ON UNIT   54 FOR MT3DMS
 BY THE LINK-MT3DMS PACKAGE V7 AT TIME STEP   83, STRESS PERIOD    2

1
              HEAD IN LAYER   1 AT END OF TIME STEP  83 IN STRESS PERIOD    2
  ---------------------------------------------------------------------------

            1           2           3           4           5           6           7           8           9          10
 ........................................................................................................................
   1    9.998       8.944       7.878       6.800       5.708       4.601       3.476       2.335       1.177      1.5354E-03
   2    9.998       8.946       7.882       6.807       5.718       4.612       3.486       2.341       1.181      1.5400E-03
   3    9.998       8.950       7.891       6.822       5.740       4.638       3.508       2.356       1.188      1.5493E-03
   4    9.998       8.955       7.903       6.844       5.777       4.688       3.545       2.378       1.198      1.5629E-03
   5    9.998       8.960       7.916       6.872       5.834       4.795       3.604       2.406       1.209      1.5778E-03
   6    9.998       8.963       7.923       6.892       5.902       5.092       3.674       2.426       1.215      1.5865E-03
   7    9.998       8.961       7.917       6.873       5.836       4.797       3.605       2.407       1.209      1.5788E-03
   8    9.998       8.957       7.906       6.848       5.781       4.693       3.549       2.381       1.199      1.5652E-03
   9    9.998       8.953       7.896       6.828       5.748       4.646       3.515       2.361       1.191      1.5535E-03
  10    9.998       8.950       7.890       6.818       5.732       4.627       3.500       2.352       1.186      1.5472E-03
1
              HEAD IN LAYER   2 AT END OF TIME STEP  83 IN STRESS PERIOD    2
  ---------------------------------------------------------------------------

            1           2           3           4           5           6           7           8           9          10
 ........................................................................................................................
   1    9.998       8.943       7.877       6.799       5.707       4.600       3.475       2.333       1.176      2.5253E-03
   2    9.998       8.945       7.881       6.806       5.717       4.611       3.485       2.340       1.179      2.5326E-03
   3    9.998       8.949       7.890       6.821       5.739       4.637       3.507       2.354       1.186      2.5475E-03
   4    9.998       8.954       7.902       6.844       5.776       4.687       3.544       2.377       1.196      2.5690E-03
   5    9.998       8.959       7.915       6.871       5.834       4.793       3.602       2.404       1.207      2.5926E-03
   6    9.998       8.962       7.922       6.891       5.901       5.131       3.671       2.425       1.213      2.6063E-03
   7    9.998       8.960       7.916       6.873       5.835       4.795       3.604       2.406       1.208      2.5942E-03
   8    9.998       8.955       7.905       6.847       5.781       4.692       3.548       2.380       1.198      2.5726E-03
   9    9.998       8.951       7.894       6.827       5.747       4.646       3.514       2.360       1.189      2.5542E-03
  10    9.998       8.949       7.889       6.817       5.731       4.626       3.499       2.350       1.185      2.5442E-03
1
              HEAD IN LAYER   3 AT END OF TIME STEP  83 IN STRESS PERIOD    2
  ---------------------------------------------------------------------------

            1           2           3           4           5           6           7           8           9          10
 ........................................................................................................................
   1    9.998       8.942       7.876       6.798       5.706       4.599       3.474       2.332       1.174      2.5756E-03
   2    9.998       8.944       7.880       6.805       5.716       4.610       3.484       2.339       1.178      2.5831E-03
   3    9.998       8.948       7.889       6.820       5.738       4.636       3.506       2.353       1.185      2.5983E-03
   4    9.998       8.953       7.901       6.843       5.776       4.686       3.543       2.375       1.195      2.6203E-03
   5    9.998       8.958       7.914       6.871       5.832       4.787       3.601       2.403       1.206      2.6444E-03
   6    9.998       8.961       7.921       6.890       5.895       5.021       3.665       2.423       1.212      2.6582E-03
   7    9.998       8.959       7.915       6.872       5.834       4.789       3.602       2.404       1.206      2.6460E-03
   8    9.998       8.954       7.904       6.847       5.780       4.691       3.548       2.379       1.196      2.6240E-03
   9    9.998       8.950       7.894       6.827       5.746       4.645       3.514       2.359       1.188      2.6053E-03
  10    9.998       8.948       7.888       6.817       5.731       4.626       3.498       2.349       1.183      2.5951E-03
1
              HEAD IN LAYER   4 AT END OF TIME STEP  83 IN STRESS PERIOD    2
  ---------------------------------------------------------------------------

            1           2           3           4           5           6           7           8           9          10
 ........................................................................................................................
   1    9.998       8.941       7.875       6.797       5.705       4.598       3.473       2.331       1.173      2.5758E-03
   2    9.998       8.943       7.879       6.804       5.715       4.609       3.483       2.338       1.177      2.5833E-03
   3    9.998       8.947       7.888       6.819       5.738       4.636       3.505       2.352       1.184      2.5985E-03
   4    9.998       8.952       7.901       6.842       5.775       4.685       3.543       2.375       1.194      2.6206E-03
   5    9.998       8.958       7.913       6.870       5.831       4.781       3.599       2.402       1.205      2.6446E-03
   6    9.998       8.960       7.921       6.889       5.890       4.957       3.658       2.422       1.211      2.6584E-03
   7    9.998       8.958       7.915       6.872       5.833       4.783       3.601       2.404       1.206      2.6462E-03
   8    9.998       8.954       7.903       6.846       5.780       4.690       3.547       2.378       1.196      2.6243E-03
   9    9.998       8.950       7.893       6.826       5.746       4.645       3.513       2.358       1.187      2.6056E-03
  10    9.998       8.947       7.887       6.816       5.730       4.625       3.497       2.348       1.182      2.5954E-03
1
              HEAD IN LAYER   5 AT END OF TIME STEP  83 IN STRESS PERIOD    2
  ---------------------------------------------------------------------------

            1           2           3           4           5           6           7           8           9          10
 ........................................................................................................................
   1    9.998       8.941       7.874       6.797       5.705       4.598       3.473       2.331       1.173      2.5748E-03
   2    9.998       8.943       7.879       6.804       5.715       4.609       3.483       2.337       1.176      2.5824E-03
   3    9.998       8.947       7.888       6.819       5.737       4.635       3.505       2.352       1.183      2.5976E-03
   4    9.998       8.952       7.900       6.842       5.775       4.685       3.542       2.374       1.193      2.6197E-03
   5    9.998       8.957       7.913       6.870       5.830       4.777       3.598       2.402       1.204      2.6437E-03
   6    9.998       8.960       7.920       6.889       5.886       4.927       3.655       2.421       1.211      2.6574E-03
   7    9.998       8.958       7.914       6.871       5.832       4.780       3.600       2.403       1.205      2.6454E-03
   8    9.998       8.953       7.903       6.846       5.779       4.690       3.547       2.378       1.195      2.6235E-03
   9    9.998       8.949       7.893       6.826       5.746       4.644       3.513       2.358       1.187      2.6047E-03
  10    9.998       8.947       7.887       6.816       5.730       4.625       3.497       2.348       1.182      2.5946E-03

 HEAD WILL BE SAVED ON UNIT   51 AT END OF TIME STEP   83, STRESS PERIOD    2

 DRAWDOWN WILL BE SAVED ON UNIT   52 AT END OF TIME STEP   83, STRESS PERIOD    2
1
  VOLUMETRIC BUDGET FOR ENTIRE MODEL AT END OF TIME STEP   83, STRESS PERIOD   2
  ------------------------------------------------------------------------------

     CUMULATIVE VOLUMES      L**3       RATES FOR THIS TIME STEP      L**3/T
     ------------------                 ------------------------

           IN:                                      IN:
           ---                                      ---
             STORAGE =           0.0000               STORAGE =           0.0000
       CONSTANT HEAD =           0.0000         CONSTANT HEAD =           0.0000
               WELLS =        8300.0000                 WELLS =         100.0000
     HEAD DEP BOUNDS =       97164.7422       HEAD DEP BOUNDS =        1144.9268

            TOTAL IN =      105464.7422              TOTAL IN =        1244.9268

          OUT:                                     OUT:
          ----                                     ----
             STORAGE =        6242.6294               STORAGE =          48.0704
       CONSTANT HEAD =           0.0000         CONSTANT HEAD =           0.0000
               WELLS =           0.0000                 WELLS =           0.0000
     HEAD DEP BOUNDS =       99220.4297       HEAD DEP BOUNDS =        1196.8201

           TOTAL OUT =      105463.0625             TOTAL OUT =        1244.8905

            IN - OUT =           1.6797              IN - OUT =       3.6255E-02

 PERCENT DISCREPANCY =           0.00     PERCENT DISCREPANCY =           0.00






         TIME SUMMARY AT END OF TIME STEP   83 IN STRESS PERIOD    2
                    SECONDS     MINUTES      HOURS       DAYS        YEARS
                    -----------------------------------------------------------
   TIME STEP LENGTH  86400.      1440.0      24.000      1.0000     2.73785E-03
 STRESS PERIOD TIME 7.17120E+06 1.19520E+05  1992.0      83.000     0.22724    
         TOTAL TIME 7.25760E+06 1.20960E+05  2016.0      84.000     0.22998    
1
 
 SOLVING FOR HEAD 

 OUTPUT CONTROL FOR STRESS PERIOD    2   TIME STEP   84
    SAVE HEAD FOR ALL LAYERS
    SAVE DRAWDOWN FOR ALL LAYERS
    SAVE BUDGET
    PRINT HEAD FOR ALL LAYERS
    PRINT BUDGET
 UBDSV1 SAVING "         STORAGE" ON UNIT  53 AT TIME STEP 84, STRESS PERIOD   2
 UBDSV2 SAVING "   CONSTANT HEAD" ON UNIT  53 AT TIME STEP 84, STRESS PERIOD   2
 UBDSV1 SAVING "FLOW RIGHT FACE " ON UNIT  53 AT TIME STEP 84, STRESS PERIOD   2
 UBDSV1 SAVING "FLOW FRONT FACE " ON UNIT  53 AT TIME STEP 84, STRESS PERIOD   2
 UBDSV1 SAVING "FLOW LOWER FACE " ON UNIT  53 AT TIME STEP 84, STRESS PERIOD   2

 SAVING SATURATED THICKNESS AND FLOW TERMS ON UNIT   54 FOR MT3DMS
 BY THE LINK-MT3DMS PACKAGE V7 AT TIME STEP   84, STRESS PERIOD    2

1
              HEAD IN LAYER   1 AT END OF TIME STEP  84 IN STRESS PERIOD    2
  ---------------------------------------------------------------------------

            1           2           3           4           5           6           7           8           9          10
 ........................................................................................................................
   1    9.998       8.945       7.878       6.800       5.709       4.601       3.477       2.335       1.178      1.5357E-03
   2    9.998       8.947       7.883       6.807       5.719       4.613       3.486       2.342       1.181      1.5403E-03
   3    9.998       8.951       7.891       6.822       5.740       4.639       3.508       2.356       1.188      1.5497E-03
   4    9.998       8.956       7.904       6.845       5.778       4.689       3.546       2.379       1.198      1.5634E-03
   5    9.998       8.961       7.916       6.873       5.835       4.796       3.604       2.406       1.209      1.5782E-03
   6    9.998       8.963       7.923       6.892       5.903       5.093       3.675       2.427       1.215      1.5870E-03
   7    9.998       8.961       7.917       6.874       5.837       4.798       3.606       2.408       1.210      1.5792E-03
   8    9.998       8.957       7.906       6.849       5.782       4.694       3.550       2.382       1.200      1.5656E-03
   9    9.998       8.953       7.896       6.829       5.749       4.647       3.516       2.362       1.191      1.5539E-03
  10    9.998       8.950       7.890       6.819       5.733       4.628       3.500       2.352       1.186      1.5476E-03
1
              HEAD IN LAYER   2 AT END OF TIME STEP  84 IN STRESS PERIOD    2
  ---------------------------------------------------------------------------

            1           2           3           4           5           6           7           8           9          10
 ........................................................................................................................
   1    9.998       8.943       7.877       6.799       5.707       4.600       3.475       2.334       1.176      2.5258E-03
   2    9.998       8.945       7.881       6.806       5.717       4.612       3.485       2.340       1.179      2.5331E-03
   3    9.998       8.949       7.890       6.821       5.739       4.638       3.507       2.355       1.186      2.5480E-03
   4    9.998       8.954       7.902       6.844       5.777       4.688       3.545       2.377       1.196      2.5696E-03
   5    9.998       8.959       7.915       6.872       5.834       4.794       3.603       2.405       1.207      2.5933E-03
   6    9.998       8.962       7.922       6.892       5.902       5.132       3.672       2.425       1.214      2.6070E-03
   7    9.998       8.960       7.916       6.873       5.836       4.796       3.605       2.406       1.208      2.5949E-03
   8    9.998       8.956       7.905       6.848       5.782       4.693       3.549       2.380       1.198      2.5733E-03
   9    9.998       8.951       7.895       6.828       5.748       4.647       3.515       2.361       1.190      2.5548E-03
  10    9.998       8.949       7.889       6.818       5.732       4.627       3.499       2.351       1.185      2.5449E-03
1
              HEAD IN LAYER   3 AT END OF TIME STEP  84 IN STRESS PERIOD    2
  ---------------------------------------------------------------------------

            1           2           3           4           5           6           7           8           9          10
 ........................................................................................................................
   1    9.998       8.942       7.876       6.798       5.707       4.599       3.474       2.332       1.175      2.5761E-03
   2    9.998       8.944       7.880       6.805       5.717       4.611       3.484       2.339       1.178      2.5836E-03
   3    9.998       8.948       7.889       6.820       5.739       4.637       3.506       2.354       1.185      2.5989E-03
   4    9.998       8.953       7.902       6.843       5.776       4.687       3.544       2.376       1.195      2.6209E-03
   5    9.998       8.958       7.914       6.871       5.833       4.788       3.601       2.404       1.206      2.6450E-03
   6    9.998       8.961       7.922       6.891       5.896       5.022       3.665       2.423       1.212      2.6589E-03
   7    9.998       8.959       7.916       6.873       5.835       4.790       3.603       2.405       1.207      2.6467E-03
   8    9.998       8.955       7.904       6.847       5.781       4.692       3.548       2.379       1.197      2.6247E-03
   9    9.998       8.950       7.894       6.827       5.747       4.646       3.514       2.360       1.188      2.6059E-03
  10    9.998       8.948       7.888       6.817       5.731       4.627       3.499       2.350       1.184      2.5957E-03
1
              HEAD IN LAYER   4 AT END OF TIME STEP  84 IN STRESS PERIOD    2
  ---------------------------------------------------------------------------

            1           2           3           4           5           6           7           8           9          10
 ........................................................................................................................
   1    9.998       8.941       7.875       6.797       5.706       4.598       3.473       2.331       1.174      2.5762E-03
   2    9.998       8.943       7.880       6.805       5.716       4.610       3.484       2.338       1.177      2.5838E-03
   3    9.998       8.947       7.889       6.820       5.738       4.636       3.506       2.353       1.184      2.5991E-03
   4    9.998       8.953       7.901       6.843       5.776       4.686       3.543       2.375       1.194      2.6212E-03
   5    9.998       8.958       7.914       6.871       5.832       4.782       3.600       2.403       1.205      2.6453E-03
   6    9.998       8.960       7.921       6.890       5.890       4.957       3.659       2.422       1.211      2.6591E-03
   7    9.998       8.958       7.915       6.872       5.834       4.784       3.602       2.404       1.206      2.6469E-03
   8    9.998       8.954       7.904       6.847       5.780       4.691       3.548       2.378       1.196      2.6250E-03
   9    9.998       8.950       7.893       6.827       5.747       4.645       3.514       2.359       1.187      2.6062E-03
  10    9.998       8.947       7.888       6.817       5.731       4.626       3.498       2.349       1.183      2.5960E-03
1
              HEAD IN LAYER   5 AT END OF TIME STEP  84 IN STRESS PERIOD    2
  ---------------------------------------------------------------------------

            1           2           3           4           5           6           7           8           9          10
 ........................................................................................................................
   1    9.998       8.941       7.875       6.797       5.706       4.598       3.473       2.331       1.173      2.5753E-03
   2    9.998       8.943       7.879       6.804       5.716       4.610       3.483       2.338       1.177      2.5829E-03
   3    9.998       8.947       7.888       6.820       5.738       4.636       3.505       2.352       1.184      2.5982E-03
   4    9.998       8.952       7.901       6.843       5.776       4.686       3.543       2.375       1.194      2.6203E-03
   5    9.998       8.957       7.914       6.870       5.831       4.778       3.599       2.402       1.205      2.6444E-03
   6    9.998       8.960       7.921       6.890       5.887       4.928       3.655       2.422       1.211      2.6581E-03
   7    9.998       8.958       7.915       6.872       5.833       4.780       3.601       2.404       1.205      2.6460E-03
   8    9.998       8.954       7.903       6.847       5.780       4.691       3.547       2.378       1.195      2.6242E-03
   9    9.998       8.950       7.893       6.827       5.747       4.645       3.513       2.359       1.187      2.6054E-03
  10    9.998       8.947       7.887       6.816       5.731       4.626       3.498       2.349       1.182      2.5952E-03

 HEAD WILL BE SAVED ON UNIT   51 AT END OF TIME STEP   84, STRESS PERIOD    2

 DRAWDOWN WILL BE SAVED ON UNIT   52 AT END OF TIME STEP   84, STRESS PERIOD    2
1
  VOLUMETRIC BUDGET FOR ENTIRE MODEL AT END OF TIME STEP   84, STRESS PERIOD   2
  ------------------------------------------------------------------------------

     CUMULATIVE VOLUMES      L**3       RATES FOR THIS TIME STEP      L**3/T
     ------------------                 ------------------------

           IN:                                      IN:
           ---                                      ---
             STORAGE =           0.0000               STORAGE =           0.0000
       CONSTANT HEAD =           0.0000         CONSTANT HEAD =           0.0000
               WELLS =        8400.0000                 WELLS =         100.0000
     HEAD DEP BOUNDS =       98309.4141       HEAD DEP BOUNDS =        1144.6724

            TOTAL IN =      106709.4141              TOTAL IN =        1244.6724

          OUT:                                     OUT:
          ----                                     ----
             STORAGE =        6290.1562               STORAGE =          47.5270
       CONSTANT HEAD =           0.0000         CONSTANT HEAD =           0.0000
               WELLS =           0.0000                 WELLS =           0.0000
     HEAD DEP BOUNDS =      100417.5312       HEAD DEP BOUNDS =        1197.1033

           TOTAL OUT =      106707.6875             TOTAL OUT =        1244.6302

            IN - OUT =           1.7266              IN - OUT =       4.2114E-02

 PERCENT DISCREPANCY =           0.00     PERCENT DISCREPANCY =           0.00






         TIME SUMMARY AT END OF TIME STEP   84 IN STRESS PERIOD    2
                    SECONDS     MINUTES      HOURS       DAYS        YEARS
                    -----------------------------------------------------------
   TIME STEP LENGTH  86400.      1440.0      24.000      1.0000     2.73785E-03
 STRESS PERIOD TIME 7.25760E+06 1.20960E+05  2016.0      84.000     0.22998    
         TOTAL TIME 7.34400E+06 1.22400E+05  2040.0      85.000     0.23272    
1
 
 SOLVING FOR HEAD 

 OUTPUT CONTROL FOR STRESS PERIOD    2   TIME STEP   85
    SAVE HEAD FOR ALL LAYERS
    SAVE DRAWDOWN FOR ALL LAYERS
    SAVE BUDGET
    PRINT HEAD FOR ALL LAYERS
    PRINT BUDGET
 UBDSV1 SAVING "         STORAGE" ON UNIT  53 AT TIME STEP 85, STRESS PERIOD   2
 UBDSV2 SAVING "   CONSTANT HEAD" ON UNIT  53 AT TIME STEP 85, STRESS PERIOD   2
 UBDSV1 SAVING "FLOW RIGHT FACE " ON UNIT  53 AT TIME STEP 85, STRESS PERIOD   2
 UBDSV1 SAVING "FLOW FRONT FACE " ON UNIT  53 AT TIME STEP 85, STRESS PERIOD   2
 UBDSV1 SAVING "FLOW LOWER FACE " ON UNIT  53 AT TIME STEP 85, STRESS PERIOD   2

 SAVING SATURATED THICKNESS AND FLOW TERMS ON UNIT   54 FOR MT3DMS
 BY THE LINK-MT3DMS PACKAGE V7 AT TIME STEP   85, STRESS PERIOD    2

1
              HEAD IN LAYER   1 AT END OF TIME STEP  85 IN STRESS PERIOD    2
  ---------------------------------------------------------------------------

            1           2           3           4           5           6           7           8           9          10
 ........................................................................................................................
   1    9.998       8.945       7.879       6.801       5.709       4.602       3.477       2.335       1.178      1.5360E-03
   2    9.998       8.947       7.883       6.808       5.719       4.613       3.487       2.342       1.181      1.5406E-03
   3    9.998       8.951       7.892       6.823       5.741       4.639       3.509       2.357       1.188      1.5501E-03
   4    9.998       8.956       7.904       6.846       5.779       4.690       3.547       2.379       1.198      1.5637E-03
   5    9.998       8.961       7.917       6.873       5.836       4.797       3.605       2.407       1.209      1.5787E-03
   6    9.998       8.963       7.924       6.893       5.904       5.094       3.676       2.427       1.216      1.5874E-03
   7    9.998       8.962       7.918       6.875       5.838       4.799       3.607       2.408       1.210      1.5797E-03
   8    9.998       8.957       7.907       6.849       5.783       4.695       3.551       2.382       1.200      1.5661E-03
   9    9.998       8.953       7.896       6.830       5.749       4.648       3.517       2.363       1.191      1.5543E-03
  10    9.998       8.951       7.891       6.819       5.734       4.629       3.501       2.353       1.187      1.5480E-03
1
              HEAD IN LAYER   2 AT END OF TIME STEP  85 IN STRESS PERIOD    2
  ---------------------------------------------------------------------------

            1           2           3           4           5           6           7           8           9          10
 ........................................................................................................................
   1    9.998       8.943       7.877       6.799       5.708       4.601       3.476       2.334       1.176      2.5262E-03
   2    9.998       8.945       7.882       6.807       5.718       4.612       3.486       2.341       1.180      2.5336E-03
   3    9.998       8.949       7.891       6.822       5.740       4.638       3.508       2.355       1.187      2.5486E-03
   4    9.998       8.955       7.903       6.845       5.778       4.689       3.546       2.378       1.197      2.5703E-03
   5    9.998       8.960       7.916       6.873       5.835       4.795       3.604       2.405       1.208      2.5940E-03
   6    9.998       8.962       7.923       6.892       5.903       5.133       3.673       2.426       1.214      2.6077E-03
   7    9.998       8.960       7.917       6.874       5.837       4.797       3.606       2.407       1.209      2.5956E-03
   8    9.998       8.956       7.906       6.849       5.782       4.694       3.550       2.381       1.198      2.5740E-03
   9    9.998       8.952       7.895       6.829       5.749       4.647       3.516       2.361       1.190      2.5555E-03
  10    9.998       8.949       7.890       6.819       5.733       4.628       3.500       2.351       1.185      2.5455E-03
1
              HEAD IN LAYER   3 AT END OF TIME STEP  85 IN STRESS PERIOD    2
  ---------------------------------------------------------------------------

            1           2           3           4           5           6           7           8           9          10
 ........................................................................................................................
   1    9.998       8.942       7.876       6.798       5.707       4.600       3.475       2.333       1.175      2.5765E-03
   2    9.998       8.944       7.881       6.806       5.717       4.611       3.485       2.340       1.178      2.5841E-03
   3    9.998       8.948       7.890       6.821       5.739       4.637       3.507       2.354       1.185      2.5994E-03
   4    9.998       8.954       7.902       6.844       5.777       4.688       3.545       2.377       1.195      2.6215E-03
   5    9.998       8.959       7.915       6.872       5.834       4.788       3.602       2.404       1.206      2.6457E-03
   6    9.998       8.961       7.922       6.892       5.897       5.022       3.666       2.424       1.213      2.6596E-03
   7    9.998       8.959       7.916       6.874       5.836       4.790       3.604       2.406       1.207      2.6474E-03
   8    9.998       8.955       7.905       6.848       5.782       4.693       3.549       2.380       1.197      2.6254E-03
   9    9.998       8.951       7.894       6.828       5.748       4.647       3.515       2.360       1.188      2.6066E-03
  10    9.998       8.948       7.889       6.818       5.732       4.627       3.499       2.350       1.184      2.5964E-03
1
              HEAD IN LAYER   4 AT END OF TIME STEP  85 IN STRESS PERIOD    2
  ---------------------------------------------------------------------------

            1           2           3           4           5           6           7           8           9          10
 ........................................................................................................................
   1    9.998       8.941       7.875       6.798       5.706       4.599       3.474       2.332       1.174      2.5767E-03
   2    9.998       8.944       7.880       6.805       5.717       4.611       3.484       2.339       1.177      2.5843E-03
   3    9.998       8.948       7.889       6.820       5.739       4.637       3.506       2.353       1.184      2.5996E-03
   4    9.998       8.953       7.901       6.844       5.777       4.687       3.544       2.376       1.194      2.6218E-03
   5    9.998       8.958       7.914       6.871       5.833       4.782       3.601       2.403       1.205      2.6459E-03
   6    9.998       8.961       7.922       6.891       5.891       4.958       3.660       2.423       1.212      2.6598E-03
   7    9.998       8.959       7.916       6.873       5.835       4.785       3.602       2.405       1.206      2.6476E-03
   8    9.998       8.954       7.904       6.847       5.781       4.692       3.548       2.379       1.196      2.6257E-03
   9    9.998       8.950       7.894       6.828       5.748       4.646       3.514       2.359       1.188      2.6069E-03
  10    9.998       8.948       7.888       6.817       5.732       4.627       3.499       2.349       1.183      2.5967E-03
1
              HEAD IN LAYER   5 AT END OF TIME STEP  85 IN STRESS PERIOD    2
  ---------------------------------------------------------------------------

            1           2           3           4           5           6           7           8           9          10
 ........................................................................................................................
   1    9.998       8.941       7.875       6.797       5.706       4.599       3.474       2.331       1.173      2.5757E-03
   2    9.998       8.943       7.880       6.805       5.716       4.610       3.484       2.338       1.177      2.5834E-03
   3    9.998       8.947       7.889       6.820       5.739       4.637       3.506       2.353       1.184      2.5987E-03
   4    9.998       8.953       7.901       6.843       5.776       4.686       3.544       2.375       1.194      2.6209E-03
   5    9.998       8.958       7.914       6.871       5.832       4.779       3.600       2.403       1.205      2.6450E-03
   6    9.998       8.960       7.921       6.890       5.888       4.929       3.656       2.422       1.211      2.6588E-03
   7    9.998       8.958       7.915       6.873       5.834       4.781       3.602       2.404       1.206      2.6467E-03
   8    9.998       8.954       7.904       6.847       5.781       4.691       3.548       2.379       1.196      2.6248E-03
   9    9.998       8.950       7.894       6.827       5.747       4.646       3.514       2.359       1.187      2.6060E-03
  10    9.998       8.947       7.888       6.817       5.732       4.627       3.498       2.349       1.182      2.5958E-03

 HEAD WILL BE SAVED ON UNIT   51 AT END OF TIME STEP   85, STRESS PERIOD    2

 DRAWDOWN WILL BE SAVED ON UNIT   52 AT END OF TIME STEP   85, STRESS PERIOD    2
1
  VOLUMETRIC BUDGET FOR ENTIRE MODEL AT END OF TIME STEP   85, STRESS PERIOD   2
  ------------------------------------------------------------------------------

     CUMULATIVE VOLUMES      L**3       RATES FOR THIS TIME STEP      L**3/T
     ------------------                 ------------------------

           IN:                                      IN:
           ---                                      ---
             STORAGE =           0.0000               STORAGE =           0.0000
       CONSTANT HEAD =           0.0000         CONSTANT HEAD =           0.0000
               WELLS =        8500.0000                 WELLS =         100.0000
     HEAD DEP BOUNDS =       99453.8359       HEAD DEP BOUNDS =        1144.4202

            TOTAL IN =      107953.8359              TOTAL IN =        1244.4202

          OUT:                                     OUT:
          ----                                     ----
             STORAGE =        6337.1650               STORAGE =          47.0089
       CONSTANT HEAD =           0.0000         CONSTANT HEAD =           0.0000
               WELLS =           0.0000                 WELLS =           0.0000
     HEAD DEP BOUNDS =      101614.9141       HEAD DEP BOUNDS =        1197.3829

           TOTAL OUT =      107952.0781             TOTAL OUT =        1244.3918

            IN - OUT =           1.7578              IN - OUT =       2.8320E-02

 PERCENT DISCREPANCY =           0.00     PERCENT DISCREPANCY =           0.00






         TIME SUMMARY AT END OF TIME STEP   85 IN STRESS PERIOD    2
                    SECONDS     MINUTES      HOURS       DAYS        YEARS
                    -----------------------------------------------------------
   TIME STEP LENGTH  86400.      1440.0      24.000      1.0000     2.73785E-03
 STRESS PERIOD TIME 7.34400E+06 1.22400E+05  2040.0      85.000     0.23272    
         TOTAL TIME 7.43040E+06 1.23840E+05  2064.0      86.000     0.23546    
1
 
 SOLVING FOR HEAD 

 OUTPUT CONTROL FOR STRESS PERIOD    2   TIME STEP   86
    SAVE HEAD FOR ALL LAYERS
    SAVE DRAWDOWN FOR ALL LAYERS
    SAVE BUDGET
    PRINT HEAD FOR ALL LAYERS
    PRINT BUDGET
 UBDSV1 SAVING "         STORAGE" ON UNIT  53 AT TIME STEP 86, STRESS PERIOD   2
 UBDSV2 SAVING "   CONSTANT HEAD" ON UNIT  53 AT TIME STEP 86, STRESS PERIOD   2
 UBDSV1 SAVING "FLOW RIGHT FACE " ON UNIT  53 AT TIME STEP 86, STRESS PERIOD   2
 UBDSV1 SAVING "FLOW FRONT FACE " ON UNIT  53 AT TIME STEP 86, STRESS PERIOD   2
 UBDSV1 SAVING "FLOW LOWER FACE " ON UNIT  53 AT TIME STEP 86, STRESS PERIOD   2

 SAVING SATURATED THICKNESS AND FLOW TERMS ON UNIT   54 FOR MT3DMS
 BY THE LINK-MT3DMS PACKAGE V7 AT TIME STEP   86, STRESS PERIOD    2

1
              HEAD IN LAYER   1 AT END OF TIME STEP  86 IN STRESS PERIOD    2
  ---------------------------------------------------------------------------

            1           2           3           4           5           6           7           8           9          10
 ........................................................................................................................
   1    9.998       8.945       7.879       6.801       5.710       4.602       3.478       2.336       1.178      1.5363E-03
   2    9.998       8.947       7.883       6.808       5.720       4.614       3.488       2.343       1.182      1.5409E-03
   3    9.998       8.951       7.892       6.823       5.742       4.640       3.510       2.357       1.189      1.5504E-03
   4    9.998       8.956       7.904       6.846       5.779       4.691       3.547       2.380       1.199      1.5642E-03
   5    9.998       8.961       7.917       6.874       5.837       4.798       3.606       2.407       1.210      1.5791E-03
   6    9.998       8.964       7.924       6.894       5.905       5.095       3.676       2.428       1.216      1.5878E-03
   7    9.998       8.962       7.918       6.876       5.839       4.800       3.608       2.409       1.210      1.5801E-03
   8    9.998       8.957       7.907       6.850       5.784       4.695       3.552       2.383       1.200      1.5665E-03
   9    9.998       8.953       7.897       6.830       5.750       4.649       3.518       2.363       1.192      1.5548E-03
  10    9.998       8.951       7.891       6.820       5.734       4.630       3.502       2.353       1.187      1.5484E-03
1
              HEAD IN LAYER   2 AT END OF TIME STEP  86 IN STRESS PERIOD    2
  ---------------------------------------------------------------------------

            1           2           3           4           5           6           7           8           9          10
 ........................................................................................................................
   1    9.998       8.943       7.878       6.800       5.709       4.601       3.476       2.334       1.176      2.5266E-03
   2    9.998       8.946       7.882       6.807       5.719       4.613       3.486       2.341       1.180      2.5341E-03
   3    9.998       8.950       7.891       6.822       5.741       4.639       3.508       2.356       1.187      2.5491E-03
   4    9.998       8.955       7.903       6.845       5.779       4.690       3.546       2.378       1.197      2.5709E-03
   5    9.998       8.960       7.916       6.873       5.836       4.796       3.605       2.406       1.208      2.5946E-03
   6    9.998       8.962       7.923       6.893       5.903       5.133       3.674       2.426       1.214      2.6083E-03
   7    9.998       8.960       7.917       6.875       5.838       4.798       3.606       2.407       1.209      2.5963E-03
   8    9.998       8.956       7.906       6.849       5.783       4.695       3.551       2.382       1.199      2.5746E-03
   9    9.998       8.952       7.896       6.829       5.749       4.648       3.517       2.362       1.190      2.5561E-03
  10    9.998       8.950       7.890       6.819       5.734       4.629       3.501       2.352       1.185      2.5461E-03
1
              HEAD IN LAYER   3 AT END OF TIME STEP  86 IN STRESS PERIOD    2
  ---------------------------------------------------------------------------

            1           2           3           4           5           6           7           8           9          10
 ........................................................................................................................
   1    9.998       8.942       7.877       6.799       5.708       4.600       3.475       2.333       1.175      2.5770E-03
   2    9.998       8.944       7.881       6.806       5.718       4.612       3.485       2.340       1.178      2.5846E-03
   3    9.998       8.948       7.890       6.822       5.740       4.638       3.507       2.355       1.185      2.5999E-03
   4    9.998       8.954       7.902       6.845       5.778       4.689       3.545       2.377       1.196      2.6221E-03
   5    9.998       8.959       7.915       6.873       5.835       4.789       3.603       2.405       1.207      2.6463E-03
   6    9.998       8.961       7.923       6.892       5.898       5.023       3.667       2.425       1.213      2.6603E-03
   7    9.998       8.960       7.917       6.874       5.837       4.791       3.605       2.406       1.207      2.6480E-03
   8    9.998       8.955       7.905       6.849       5.783       4.693       3.550       2.380       1.197      2.6260E-03
   9    9.998       8.951       7.895       6.829       5.749       4.647       3.516       2.361       1.189      2.6072E-03
  10    9.998       8.949       7.889       6.818       5.733       4.628       3.500       2.351       1.184      2.5970E-03
1
              HEAD IN LAYER   4 AT END OF TIME STEP  86 IN STRESS PERIOD    2
  ---------------------------------------------------------------------------

            1           2           3           4           5           6           7           8           9          10
 ........................................................................................................................
   1    9.998       8.942       7.876       6.798       5.707       4.600       3.474       2.332       1.174      2.5771E-03
   2    9.998       8.944       7.880       6.806       5.717       4.611       3.485       2.339       1.177      2.5847E-03
   3    9.998       8.948       7.889       6.821       5.739       4.638       3.507       2.354       1.184      2.6001E-03
   4    9.998       8.953       7.902       6.844       5.777       4.688       3.545       2.376       1.195      2.6224E-03
   5    9.998       8.958       7.915       6.872       5.833       4.783       3.601       2.404       1.206      2.6466E-03
   6    9.998       8.961       7.922       6.891       5.892       4.959       3.661       2.423       1.212      2.6604E-03
   7    9.998       8.959       7.916       6.874       5.835       4.785       3.603       2.405       1.206      2.6483E-03
   8    9.998       8.955       7.905       6.848       5.782       4.693       3.549       2.380       1.196      2.6263E-03
   9    9.998       8.950       7.894       6.828       5.748       4.647       3.515       2.360       1.188      2.6075E-03
  10    9.998       8.948       7.889       6.818       5.733       4.628       3.499       2.350       1.183      2.5973E-03
1
              HEAD IN LAYER   5 AT END OF TIME STEP  86 IN STRESS PERIOD    2
  ---------------------------------------------------------------------------

            1           2           3           4           5           6           7           8           9          10
 ........................................................................................................................
   1    9.998       8.941       7.875       6.798       5.707       4.599       3.474       2.332       1.174      2.5762E-03
   2    9.998       8.943       7.880       6.805       5.717       4.611       3.484       2.339       1.177      2.5838E-03
   3    9.998       8.947       7.889       6.821       5.739       4.637       3.506       2.353       1.184      2.5992E-03
   4    9.998       8.953       7.902       6.844       5.777       4.687       3.544       2.376       1.194      2.6215E-03
   5    9.998       8.958       7.915       6.872       5.833       4.780       3.600       2.403       1.205      2.6457E-03
   6    9.998       8.961       7.922       6.891       5.889       4.929       3.657       2.423       1.212      2.6595E-03
   7    9.998       8.959       7.916       6.874       5.835       4.782       3.602       2.405       1.206      2.6474E-03
   8    9.998       8.954       7.904       6.848       5.782       4.692       3.549       2.379       1.196      2.6255E-03
   9    9.998       8.950       7.894       6.828       5.748       4.647       3.515       2.360       1.187      2.6066E-03
  10    9.998       8.948       7.888       6.818       5.732       4.627       3.499       2.350       1.183      2.5964E-03

 HEAD WILL BE SAVED ON UNIT   51 AT END OF TIME STEP   86, STRESS PERIOD    2

 DRAWDOWN WILL BE SAVED ON UNIT   52 AT END OF TIME STEP   86, STRESS PERIOD    2
1
  VOLUMETRIC BUDGET FOR ENTIRE MODEL AT END OF TIME STEP   86, STRESS PERIOD   2
  ------------------------------------------------------------------------------

     CUMULATIVE VOLUMES      L**3       RATES FOR THIS TIME STEP      L**3/T
     ------------------                 ------------------------

           IN:                                      IN:
           ---                                      ---
             STORAGE =           0.0000               STORAGE =           0.0000
       CONSTANT HEAD =           0.0000         CONSTANT HEAD =           0.0000
               WELLS =        8600.0000                 WELLS =         100.0000
     HEAD DEP BOUNDS =      100598.0156       HEAD DEP BOUNDS =        1144.1775

            TOTAL IN =      109198.0156              TOTAL IN =        1244.1775

          OUT:                                     OUT:
          ----                                     ----
             STORAGE =        6383.6504               STORAGE =          46.4855
       CONSTANT HEAD =           0.0000         CONSTANT HEAD =           0.0000
               WELLS =           0.0000                 WELLS =           0.0000
     HEAD DEP BOUNDS =      102812.5703       HEAD DEP BOUNDS =        1197.6586

           TOTAL OUT =      109196.2188             TOTAL OUT =        1244.1440

            IN - OUT =           1.7969              IN - OUT =       3.3447E-02

 PERCENT DISCREPANCY =           0.00     PERCENT DISCREPANCY =           0.00






         TIME SUMMARY AT END OF TIME STEP   86 IN STRESS PERIOD    2
                    SECONDS     MINUTES      HOURS       DAYS        YEARS
                    -----------------------------------------------------------
   TIME STEP LENGTH  86400.      1440.0      24.000      1.0000     2.73785E-03
 STRESS PERIOD TIME 7.43040E+06 1.23840E+05  2064.0      86.000     0.23546    
         TOTAL TIME 7.51680E+06 1.25280E+05  2088.0      87.000     0.23819    
1
 
 SOLVING FOR HEAD 

 OUTPUT CONTROL FOR STRESS PERIOD    2   TIME STEP   87
    SAVE HEAD FOR ALL LAYERS
    SAVE DRAWDOWN FOR ALL LAYERS
    SAVE BUDGET
    PRINT HEAD FOR ALL LAYERS
    PRINT BUDGET
 UBDSV1 SAVING "         STORAGE" ON UNIT  53 AT TIME STEP 87, STRESS PERIOD   2
 UBDSV2 SAVING "   CONSTANT HEAD" ON UNIT  53 AT TIME STEP 87, STRESS PERIOD   2
 UBDSV1 SAVING "FLOW RIGHT FACE " ON UNIT  53 AT TIME STEP 87, STRESS PERIOD   2
 UBDSV1 SAVING "FLOW FRONT FACE " ON UNIT  53 AT TIME STEP 87, STRESS PERIOD   2
 UBDSV1 SAVING "FLOW LOWER FACE " ON UNIT  53 AT TIME STEP 87, STRESS PERIOD   2

 SAVING SATURATED THICKNESS AND FLOW TERMS ON UNIT   54 FOR MT3DMS
 BY THE LINK-MT3DMS PACKAGE V7 AT TIME STEP   87, STRESS PERIOD    2

1
              HEAD IN LAYER   1 AT END OF TIME STEP  87 IN STRESS PERIOD    2
  ---------------------------------------------------------------------------

            1           2           3           4           5           6           7           8           9          10
 ........................................................................................................................
   1    9.998       8.945       7.879       6.802       5.710       4.603       3.478       2.336       1.178      1.5366E-03
   2    9.998       8.947       7.884       6.809       5.720       4.614       3.488       2.343       1.182      1.5413E-03
   3    9.998       8.951       7.893       6.824       5.742       4.641       3.510       2.358       1.189      1.5508E-03
   4    9.998       8.956       7.905       6.847       5.780       4.691       3.548       2.380       1.199      1.5645E-03
   5    9.998       8.961       7.918       6.875       5.838       4.798       3.607       2.408       1.210      1.5795E-03
   6    9.998       8.964       7.925       6.895       5.906       5.095       3.677       2.429       1.216      1.5883E-03
   7    9.998       8.962       7.919       6.876       5.840       4.801       3.609       2.409       1.211      1.5806E-03
   8    9.998       8.958       7.908       6.851       5.785       4.696       3.552       2.383       1.201      1.5668E-03
   9    9.998       8.954       7.897       6.831       5.751       4.650       3.518       2.364       1.192      1.5551E-03
  10    9.998       8.951       7.892       6.821       5.735       4.630       3.502       2.354       1.187      1.5488E-03
1
              HEAD IN LAYER   2 AT END OF TIME STEP  87 IN STRESS PERIOD    2
  ---------------------------------------------------------------------------

            1           2           3           4           5           6           7           8           9          10
 ........................................................................................................................
   1    9.998       8.944       7.878       6.800       5.709       4.602       3.477       2.335       1.177      2.5271E-03
   2    9.998       8.946       7.882       6.808       5.719       4.613       3.487       2.342       1.180      2.5346E-03
   3    9.998       8.950       7.891       6.823       5.741       4.640       3.509       2.356       1.187      2.5496E-03
   4    9.998       8.955       7.904       6.846       5.779       4.690       3.547       2.379       1.197      2.5714E-03
   5    9.998       8.960       7.917       6.874       5.837       4.796       3.605       2.407       1.208      2.5953E-03
   6    9.998       8.963       7.924       6.894       5.904       5.134       3.674       2.427       1.215      2.6090E-03
   7    9.998       8.961       7.918       6.876       5.839       4.798       3.607       2.408       1.209      2.5969E-03
   8    9.998       8.956       7.906       6.850       5.784       4.695       3.551       2.382       1.199      2.5753E-03
   9    9.998       8.952       7.896       6.830       5.750       4.649       3.517       2.362       1.190      2.5567E-03
  10    9.998       8.950       7.891       6.820       5.734       4.630       3.501       2.352       1.186      2.5467E-03
1
              HEAD IN LAYER   3 AT END OF TIME STEP  87 IN STRESS PERIOD    2
  ---------------------------------------------------------------------------

            1           2           3           4           5           6           7           8           9          10
 ........................................................................................................................
   1    9.998       8.943       7.877       6.799       5.708       4.601       3.476       2.333       1.175      2.5774E-03
   2    9.998       8.945       7.881       6.807       5.718       4.612       3.486       2.340       1.179      2.5850E-03
   3    9.998       8.949       7.890       6.822       5.741       4.639       3.508       2.355       1.186      2.6005E-03
   4    9.998       8.954       7.903       6.845       5.778       4.689       3.546       2.378       1.196      2.6227E-03
   5    9.998       8.959       7.916       6.873       5.835       4.790       3.603       2.405       1.207      2.6470E-03
   6    9.998       8.962       7.923       6.893       5.898       5.024       3.668       2.425       1.213      2.6609E-03
   7    9.998       8.960       7.917       6.875       5.837       4.792       3.605       2.407       1.208      2.6487E-03
   8    9.998       8.955       7.906       6.849       5.783       4.694       3.551       2.381       1.198      2.6267E-03
   9    9.998       8.951       7.895       6.829       5.749       4.648       3.516       2.361       1.189      2.6078E-03
  10    9.998       8.949       7.890       6.819       5.734       4.629       3.501       2.351       1.184      2.5976E-03
1
              HEAD IN LAYER   4 AT END OF TIME STEP  87 IN STRESS PERIOD    2
  ---------------------------------------------------------------------------

            1           2           3           4           5           6           7           8           9          10
 ........................................................................................................................
   1    9.998       8.942       7.876       6.799       5.708       4.600       3.475       2.333       1.174      2.5776E-03
   2    9.998       8.944       7.881       6.806       5.718       4.612       3.485       2.340       1.178      2.5852E-03
   3    9.998       8.948       7.890       6.821       5.740       4.638       3.507       2.354       1.185      2.6007E-03
   4    9.998       8.953       7.902       6.845       5.778       4.688       3.545       2.377       1.195      2.6229E-03
   5    9.998       8.959       7.915       6.873       5.834       4.784       3.602       2.404       1.206      2.6472E-03
   6    9.998       8.961       7.923       6.892       5.893       4.960       3.661       2.424       1.212      2.6611E-03
   7    9.998       8.959       7.917       6.874       5.836       4.786       3.604       2.406       1.207      2.6490E-03
   8    9.998       8.955       7.905       6.849       5.783       4.693       3.550       2.380       1.197      2.6270E-03
   9    9.998       8.951       7.895       6.829       5.749       4.648       3.516       2.360       1.188      2.6081E-03
  10    9.998       8.948       7.889       6.819       5.733       4.628       3.500       2.350       1.183      2.5979E-03
1
              HEAD IN LAYER   5 AT END OF TIME STEP  87 IN STRESS PERIOD    2
  ---------------------------------------------------------------------------

            1           2           3           4           5           6           7           8           9          10
 ........................................................................................................................
   1    9.998       8.941       7.876       6.798       5.707       4.600       3.475       2.332       1.174      2.5766E-03
   2    9.998       8.944       7.880       6.806       5.717       4.611       3.485       2.339       1.177      2.5843E-03
   3    9.998       8.948       7.889       6.821       5.740       4.638       3.507       2.354       1.184      2.5998E-03
   4    9.998       8.953       7.902       6.844       5.778       4.688       3.545       2.376       1.194      2.6220E-03
   5    9.998       8.958       7.915       6.872       5.833       4.781       3.601       2.404       1.205      2.6463E-03
   6    9.998       8.961       7.922       6.892       5.889       4.930       3.658       2.423       1.212      2.6601E-03
   7    9.998       8.959       7.916       6.874       5.836       4.783       3.603       2.405       1.206      2.6480E-03
   8    9.998       8.954       7.905       6.849       5.783       4.693       3.549       2.380       1.196      2.6261E-03
   9    9.998       8.950       7.895       6.829       5.749       4.647       3.516       2.360       1.188      2.6072E-03
  10    9.998       8.948       7.889       6.818       5.733       4.628       3.500       2.350       1.183      2.5970E-03

 HEAD WILL BE SAVED ON UNIT   51 AT END OF TIME STEP   87, STRESS PERIOD    2

 DRAWDOWN WILL BE SAVED ON UNIT   52 AT END OF TIME STEP   87, STRESS PERIOD    2
1
  VOLUMETRIC BUDGET FOR ENTIRE MODEL AT END OF TIME STEP   87, STRESS PERIOD   2
  ------------------------------------------------------------------------------

     CUMULATIVE VOLUMES      L**3       RATES FOR THIS TIME STEP      L**3/T
     ------------------                 ------------------------

           IN:                                      IN:
           ---                                      ---
             STORAGE =           0.0000               STORAGE =           0.0000
       CONSTANT HEAD =           0.0000         CONSTANT HEAD =           0.0000
               WELLS =        8700.0000                 WELLS =         100.0000
     HEAD DEP BOUNDS =      101741.9453       HEAD DEP BOUNDS =        1143.9298

            TOTAL IN =      110441.9453              TOTAL IN =        1243.9298

          OUT:                                     OUT:
          ----                                     ----
             STORAGE =        6429.6143               STORAGE =          45.9638
       CONSTANT HEAD =           0.0000         CONSTANT HEAD =           0.0000
               WELLS =           0.0000                 WELLS =           0.0000
     HEAD DEP BOUNDS =      104010.5000       HEAD DEP BOUNDS =        1197.9336

           TOTAL OUT =      110440.1172             TOTAL OUT =        1243.8973

            IN - OUT =           1.8281              IN - OUT =       3.2471E-02

 PERCENT DISCREPANCY =           0.00     PERCENT DISCREPANCY =           0.00






         TIME SUMMARY AT END OF TIME STEP   87 IN STRESS PERIOD    2
                    SECONDS     MINUTES      HOURS       DAYS        YEARS
                    -----------------------------------------------------------
   TIME STEP LENGTH  86400.      1440.0      24.000      1.0000     2.73785E-03
 STRESS PERIOD TIME 7.51680E+06 1.25280E+05  2088.0      87.000     0.23819    
         TOTAL TIME 7.60320E+06 1.26720E+05  2112.0      88.000     0.24093    
1
 
 SOLVING FOR HEAD 

 OUTPUT CONTROL FOR STRESS PERIOD    2   TIME STEP   88
    SAVE HEAD FOR ALL LAYERS
    SAVE DRAWDOWN FOR ALL LAYERS
    SAVE BUDGET
    PRINT HEAD FOR ALL LAYERS
    PRINT BUDGET
 UBDSV1 SAVING "         STORAGE" ON UNIT  53 AT TIME STEP 88, STRESS PERIOD   2
 UBDSV2 SAVING "   CONSTANT HEAD" ON UNIT  53 AT TIME STEP 88, STRESS PERIOD   2
 UBDSV1 SAVING "FLOW RIGHT FACE " ON UNIT  53 AT TIME STEP 88, STRESS PERIOD   2
 UBDSV1 SAVING "FLOW FRONT FACE " ON UNIT  53 AT TIME STEP 88, STRESS PERIOD   2
 UBDSV1 SAVING "FLOW LOWER FACE " ON UNIT  53 AT TIME STEP 88, STRESS PERIOD   2

 SAVING SATURATED THICKNESS AND FLOW TERMS ON UNIT   54 FOR MT3DMS
 BY THE LINK-MT3DMS PACKAGE V7 AT TIME STEP   88, STRESS PERIOD    2

1
              HEAD IN LAYER   1 AT END OF TIME STEP  88 IN STRESS PERIOD    2
  ---------------------------------------------------------------------------

            1           2           3           4           5           6           7           8           9          10
 ........................................................................................................................
   1    9.998       8.945       7.880       6.802       5.711       4.603       3.479       2.337       1.179      1.5368E-03
   2    9.998       8.947       7.884       6.809       5.721       4.615       3.489       2.344       1.182      1.5415E-03
   3    9.998       8.951       7.893       6.824       5.743       4.641       3.511       2.358       1.189      1.5511E-03
   4    9.998       8.957       7.905       6.847       5.781       4.692       3.549       2.381       1.199      1.5649E-03
   5    9.998       8.962       7.918       6.875       5.838       4.799       3.607       2.409       1.210      1.5799E-03
   6    9.998       8.964       7.925       6.895       5.907       5.096       3.678       2.429       1.217      1.5887E-03
   7    9.998       8.962       7.919       6.877       5.840       4.801       3.609       2.410       1.211      1.5809E-03
   8    9.998       8.958       7.908       6.851       5.785       4.697       3.553       2.384       1.201      1.5672E-03
   9    9.998       8.954       7.898       6.832       5.752       4.650       3.519       2.364       1.192      1.5556E-03
  10    9.998       8.951       7.892       6.821       5.736       4.631       3.503       2.354       1.188      1.5492E-03
1
              HEAD IN LAYER   2 AT END OF TIME STEP  88 IN STRESS PERIOD    2
  ---------------------------------------------------------------------------

            1           2           3           4           5           6           7           8           9          10
 ........................................................................................................................
   1    9.998       8.944       7.878       6.801       5.710       4.602       3.477       2.335       1.177      2.5275E-03
   2    9.998       8.946       7.883       6.808       5.720       4.614       3.487       2.342       1.180      2.5350E-03
   3    9.998       8.950       7.892       6.823       5.742       4.640       3.510       2.357       1.187      2.5502E-03
   4    9.998       8.955       7.904       6.847       5.780       4.691       3.548       2.379       1.198      2.5720E-03
   5    9.998       8.960       7.917       6.875       5.837       4.797       3.606       2.407       1.209      2.5959E-03
   6    9.998       8.963       7.924       6.895       5.905       5.135       3.675       2.427       1.215      2.6097E-03
   7    9.998       8.961       7.918       6.876       5.839       4.799       3.608       2.409       1.209      2.5976E-03
   8    9.998       8.957       7.907       6.851       5.785       4.696       3.552       2.383       1.199      2.5759E-03
   9    9.998       8.952       7.897       6.831       5.751       4.650       3.518       2.363       1.191      2.5574E-03
  10    9.998       8.950       7.891       6.820       5.735       4.630       3.502       2.353       1.186      2.5473E-03
1
              HEAD IN LAYER   3 AT END OF TIME STEP  88 IN STRESS PERIOD    2
  ---------------------------------------------------------------------------

            1           2           3           4           5           6           7           8           9          10
 ........................................................................................................................
   1    9.998       8.943       7.877       6.800       5.709       4.601       3.476       2.334       1.175      2.5779E-03
   2    9.998       8.945       7.882       6.807       5.719       4.613       3.486       2.341       1.179      2.5855E-03
   3    9.998       8.949       7.891       6.823       5.741       4.639       3.509       2.355       1.186      2.6010E-03
   4    9.998       8.954       7.903       6.846       5.779       4.690       3.547       2.378       1.196      2.6233E-03
   5    9.998       8.959       7.916       6.874       5.836       4.791       3.604       2.406       1.207      2.6476E-03
   6    9.998       8.962       7.924       6.894       5.899       5.025       3.668       2.426       1.214      2.6616E-03
   7    9.998       8.960       7.918       6.876       5.838       4.793       3.606       2.407       1.208      2.6494E-03
   8    9.998       8.956       7.906       6.850       5.784       4.695       3.551       2.381       1.198      2.6273E-03
   9    9.998       8.951       7.896       6.830       5.750       4.649       3.517       2.362       1.189      2.6084E-03
  10    9.998       8.949       7.890       6.820       5.734       4.630       3.501       2.352       1.185      2.5982E-03
1
              HEAD IN LAYER   4 AT END OF TIME STEP  88 IN STRESS PERIOD    2
  ---------------------------------------------------------------------------

            1           2           3           4           5           6           7           8           9          10
 ........................................................................................................................
   1    9.998       8.942       7.876       6.799       5.708       4.601       3.475       2.333       1.174      2.5780E-03
   2    9.998       8.944       7.881       6.807       5.718       4.612       3.486       2.340       1.178      2.5857E-03
   3    9.998       8.948       7.890       6.822       5.741       4.639       3.508       2.355       1.185      2.6012E-03
   4    9.998       8.954       7.903       6.845       5.779       4.689       3.546       2.377       1.195      2.6235E-03
   5    9.998       8.959       7.916       6.873       5.835       4.785       3.603       2.405       1.206      2.6478E-03
   6    9.998       8.961       7.923       6.893       5.893       4.961       3.662       2.424       1.213      2.6617E-03
   7    9.998       8.959       7.917       6.875       5.837       4.787       3.605       2.406       1.207      2.6496E-03
   8    9.998       8.955       7.906       6.849       5.784       4.694       3.551       2.381       1.197      2.6276E-03
   9    9.998       8.951       7.895       6.829       5.750       4.648       3.517       2.361       1.188      2.6087E-03
  10    9.998       8.948       7.890       6.819       5.734       4.629       3.501       2.351       1.184      2.5985E-03
1
              HEAD IN LAYER   5 AT END OF TIME STEP  88 IN STRESS PERIOD    2
  ---------------------------------------------------------------------------

            1           2           3           4           5           6           7           8           9          10
 ........................................................................................................................
   1    9.998       8.942       7.876       6.799       5.708       4.600       3.475       2.332       1.174      2.5771E-03
   2    9.998       8.944       7.881       6.806       5.718       4.612       3.485       2.339       1.177      2.5848E-03
   3    9.998       8.948       7.890       6.822       5.740       4.639       3.508       2.354       1.185      2.6003E-03
   4    9.998       8.953       7.902       6.845       5.778       4.688       3.545       2.377       1.195      2.6226E-03
   5    9.998       8.958       7.915       6.873       5.834       4.781       3.602       2.404       1.206      2.6469E-03
   6    9.998       8.961       7.923       6.892       5.890       4.931       3.658       2.424       1.212      2.6608E-03
   7    9.998       8.959       7.917       6.875       5.836       4.784       3.604       2.406       1.207      2.6487E-03
   8    9.998       8.955       7.905       6.849       5.783       4.694       3.550       2.380       1.197      2.6267E-03
   9    9.998       8.950       7.895       6.829       5.750       4.648       3.516       2.361       1.188      2.6078E-03
  10    9.998       8.948       7.889       6.819       5.734       4.629       3.500       2.351       1.183      2.5976E-03

 HEAD WILL BE SAVED ON UNIT   51 AT END OF TIME STEP   88, STRESS PERIOD    2

 DRAWDOWN WILL BE SAVED ON UNIT   52 AT END OF TIME STEP   88, STRESS PERIOD    2
1
  VOLUMETRIC BUDGET FOR ENTIRE MODEL AT END OF TIME STEP   88, STRESS PERIOD   2
  ------------------------------------------------------------------------------

     CUMULATIVE VOLUMES      L**3       RATES FOR THIS TIME STEP      L**3/T
     ------------------                 ------------------------

           IN:                                      IN:
           ---                                      ---
             STORAGE =           0.0000               STORAGE =           0.0000
       CONSTANT HEAD =           0.0000         CONSTANT HEAD =           0.0000
               WELLS =        8800.0000                 WELLS =         100.0000
     HEAD DEP BOUNDS =      102885.6328       HEAD DEP BOUNDS =        1143.6846

            TOTAL IN =      111685.6328              TOTAL IN =        1243.6846

          OUT:                                     OUT:
          ----                                     ----
             STORAGE =        6475.0669               STORAGE =          45.4525
       CONSTANT HEAD =           0.0000         CONSTANT HEAD =           0.0000
               WELLS =           0.0000                 WELLS =           0.0000
     HEAD DEP BOUNDS =      105208.7031       HEAD DEP BOUNDS =        1198.2019

           TOTAL OUT =      111683.7734             TOTAL OUT =        1243.6544

            IN - OUT =           1.8594              IN - OUT =       3.0151E-02

 PERCENT DISCREPANCY =           0.00     PERCENT DISCREPANCY =           0.00






         TIME SUMMARY AT END OF TIME STEP   88 IN STRESS PERIOD    2
                    SECONDS     MINUTES      HOURS       DAYS        YEARS
                    -----------------------------------------------------------
   TIME STEP LENGTH  86400.      1440.0      24.000      1.0000     2.73785E-03
 STRESS PERIOD TIME 7.60320E+06 1.26720E+05  2112.0      88.000     0.24093    
         TOTAL TIME 7.68960E+06 1.28160E+05  2136.0      89.000     0.24367    
1
 
 SOLVING FOR HEAD 

 OUTPUT CONTROL FOR STRESS PERIOD    2   TIME STEP   89
    SAVE HEAD FOR ALL LAYERS
    SAVE DRAWDOWN FOR ALL LAYERS
    SAVE BUDGET
    PRINT HEAD FOR ALL LAYERS
    PRINT BUDGET
 UBDSV1 SAVING "         STORAGE" ON UNIT  53 AT TIME STEP 89, STRESS PERIOD   2
 UBDSV2 SAVING "   CONSTANT HEAD" ON UNIT  53 AT TIME STEP 89, STRESS PERIOD   2
 UBDSV1 SAVING "FLOW RIGHT FACE " ON UNIT  53 AT TIME STEP 89, STRESS PERIOD   2
 UBDSV1 SAVING "FLOW FRONT FACE " ON UNIT  53 AT TIME STEP 89, STRESS PERIOD   2
 UBDSV1 SAVING "FLOW LOWER FACE " ON UNIT  53 AT TIME STEP 89, STRESS PERIOD   2

 SAVING SATURATED THICKNESS AND FLOW TERMS ON UNIT   54 FOR MT3DMS
 BY THE LINK-MT3DMS PACKAGE V7 AT TIME STEP   89, STRESS PERIOD    2

1
              HEAD IN LAYER   1 AT END OF TIME STEP  89 IN STRESS PERIOD    2
  ---------------------------------------------------------------------------

            1           2           3           4           5           6           7           8           9          10
 ........................................................................................................................
   1    9.998       8.946       7.880       6.802       5.711       4.604       3.479       2.337       1.179      1.5371E-03
   2    9.998       8.948       7.885       6.810       5.721       4.616       3.489       2.344       1.182      1.5418E-03
   3    9.998       8.952       7.893       6.825       5.744       4.642       3.511       2.359       1.189      1.5514E-03
   4    9.998       8.957       7.906       6.848       5.781       4.693       3.549       2.381       1.199      1.5653E-03
   5    9.998       8.962       7.919       6.876       5.839       4.800       3.608       2.409       1.211      1.5804E-03
   6    9.998       8.965       7.926       6.896       5.907       5.097       3.679       2.430       1.217      1.5891E-03
   7    9.998       8.963       7.920       6.878       5.841       4.802       3.610       2.411       1.211      1.5814E-03
   8    9.998       8.958       7.909       6.852       5.786       4.698       3.554       2.384       1.201      1.5676E-03
   9    9.998       8.954       7.898       6.832       5.752       4.651       3.520       2.365       1.193      1.5559E-03
  10    9.998       8.952       7.893       6.822       5.737       4.632       3.504       2.355       1.188      1.5495E-03
1
              HEAD IN LAYER   2 AT END OF TIME STEP  89 IN STRESS PERIOD    2
  ---------------------------------------------------------------------------

            1           2           3           4           5           6           7           8           9          10
 ........................................................................................................................
   1    9.998       8.944       7.879       6.801       5.710       4.603       3.478       2.335       1.177      2.5280E-03
   2    9.998       8.946       7.883       6.809       5.720       4.614       3.488       2.342       1.181      2.5355E-03
   3    9.998       8.950       7.892       6.824       5.743       4.641       3.510       2.357       1.188      2.5507E-03
   4    9.998       8.955       7.905       6.847       5.781       4.692       3.548       2.380       1.198      2.5726E-03
   5    9.998       8.961       7.918       6.875       5.838       4.798       3.607       2.408       1.209      2.5965E-03
   6    9.998       8.963       7.925       6.895       5.906       5.136       3.676       2.428       1.215      2.6103E-03
   7    9.998       8.961       7.919       6.877       5.840       4.800       3.609       2.409       1.210      2.5983E-03
   8    9.998       8.957       7.907       6.851       5.785       4.697       3.553       2.383       1.200      2.5765E-03
   9    9.998       8.953       7.897       6.831       5.752       4.650       3.519       2.363       1.191      2.5580E-03
  10    9.998       8.950       7.892       6.821       5.736       4.631       3.503       2.353       1.186      2.5479E-03
1
              HEAD IN LAYER   3 AT END OF TIME STEP  89 IN STRESS PERIOD    2
  ---------------------------------------------------------------------------

            1           2           3           4           5           6           7           8           9          10
 ........................................................................................................................
   1    9.998       8.943       7.878       6.800       5.709       4.602       3.477       2.334       1.176      2.5783E-03
   2    9.998       8.945       7.882       6.808       5.719       4.614       3.487       2.341       1.179      2.5860E-03
   3    9.998       8.949       7.891       6.823       5.742       4.640       3.509       2.356       1.186      2.6015E-03
   4    9.998       8.954       7.904       6.846       5.780       4.691       3.547       2.378       1.196      2.6239E-03
   5    9.998       8.960       7.917       6.874       5.837       4.791       3.605       2.406       1.207      2.6482E-03
   6    9.998       8.962       7.924       6.894       5.900       5.026       3.669       2.426       1.214      2.6622E-03
   7    9.998       8.960       7.918       6.876       5.839       4.794       3.607       2.408       1.208      2.6500E-03
   8    9.998       8.956       7.907       6.850       5.785       4.696       3.552       2.382       1.198      2.6280E-03
   9    9.998       8.952       7.896       6.831       5.751       4.650       3.518       2.362       1.190      2.6091E-03
  10    9.998       8.949       7.891       6.820       5.735       4.630       3.502       2.352       1.185      2.5988E-03
1
              HEAD IN LAYER   4 AT END OF TIME STEP  89 IN STRESS PERIOD    2
  ---------------------------------------------------------------------------

            1           2           3           4           5           6           7           8           9          10
 ........................................................................................................................
   1    9.998       8.942       7.877       6.800       5.709       4.601       3.476       2.333       1.175      2.5784E-03
   2    9.998       8.944       7.881       6.807       5.719       4.613       3.486       2.340       1.178      2.5861E-03
   3    9.998       8.948       7.890       6.823       5.741       4.639       3.508       2.355       1.185      2.6017E-03
   4    9.998       8.954       7.903       6.846       5.779       4.690       3.547       2.378       1.195      2.6241E-03
   5    9.998       8.959       7.916       6.874       5.836       4.786       3.603       2.405       1.207      2.6484E-03
   6    9.998       8.962       7.924       6.893       5.894       4.961       3.663       2.425       1.213      2.6624E-03
   7    9.998       8.960       7.918       6.876       5.838       4.788       3.605       2.407       1.207      2.6502E-03
   8    9.998       8.955       7.906       6.850       5.784       4.695       3.551       2.381       1.197      2.6282E-03
   9    9.998       8.951       7.896       6.830       5.751       4.649       3.517       2.362       1.189      2.6093E-03
  10    9.998       8.949       7.890       6.820       5.735       4.630       3.501       2.351       1.184      2.5991E-03
1
              HEAD IN LAYER   5 AT END OF TIME STEP  89 IN STRESS PERIOD    2
  ---------------------------------------------------------------------------

            1           2           3           4           5           6           7           8           9          10
 ........................................................................................................................
   1    9.998       8.942       7.876       6.799       5.708       4.601       3.476       2.333       1.174      2.5775E-03
   2    9.998       8.944       7.881       6.807       5.719       4.613       3.486       2.340       1.178      2.5852E-03
   3    9.998       8.948       7.890       6.822       5.741       4.639       3.508       2.355       1.185      2.6008E-03
   4    9.998       8.953       7.903       6.846       5.779       4.689       3.546       2.377       1.195      2.6232E-03
   5    9.998       8.959       7.916       6.874       5.835       4.782       3.602       2.405       1.206      2.6475E-03
   6    9.998       8.961       7.923       6.893       5.891       4.932       3.659       2.424       1.212      2.6614E-03
   7    9.998       8.959       7.917       6.875       5.837       4.784       3.604       2.406       1.207      2.6493E-03
   8    9.998       8.955       7.906       6.850       5.784       4.694       3.551       2.381       1.197      2.6274E-03
   9    9.998       8.951       7.895       6.830       5.750       4.649       3.517       2.361       1.188      2.6085E-03
  10    9.998       8.948       7.890       6.820       5.734       4.630       3.501       2.351       1.184      2.5982E-03

 HEAD WILL BE SAVED ON UNIT   51 AT END OF TIME STEP   89, STRESS PERIOD    2

 DRAWDOWN WILL BE SAVED ON UNIT   52 AT END OF TIME STEP   89, STRESS PERIOD    2
1
  VOLUMETRIC BUDGET FOR ENTIRE MODEL AT END OF TIME STEP   89, STRESS PERIOD   2
  ------------------------------------------------------------------------------

     CUMULATIVE VOLUMES      L**3       RATES FOR THIS TIME STEP      L**3/T
     ------------------                 ------------------------

           IN:                                      IN:
           ---                                      ---
             STORAGE =           0.0000               STORAGE =           0.0000
       CONSTANT HEAD =           0.0000         CONSTANT HEAD =           0.0000
               WELLS =        8900.0000                 WELLS =         100.0000
     HEAD DEP BOUNDS =      104029.0781       HEAD DEP BOUNDS =        1143.4489

            TOTAL IN =      112929.0781              TOTAL IN =        1243.4489

          OUT:                                     OUT:
          ----                                     ----
             STORAGE =        6520.0122               STORAGE =          44.9452
       CONSTANT HEAD =           0.0000         CONSTANT HEAD =           0.0000
               WELLS =           0.0000                 WELLS =           0.0000
     HEAD DEP BOUNDS =      106407.1719       HEAD DEP BOUNDS =        1198.4679

           TOTAL OUT =      112927.1875             TOTAL OUT =        1243.4131

            IN - OUT =           1.8906              IN - OUT =       3.5767E-02

 PERCENT DISCREPANCY =           0.00     PERCENT DISCREPANCY =           0.00






         TIME SUMMARY AT END OF TIME STEP   89 IN STRESS PERIOD    2
                    SECONDS     MINUTES      HOURS       DAYS        YEARS
                    -----------------------------------------------------------
   TIME STEP LENGTH  86400.      1440.0      24.000      1.0000     2.73785E-03
 STRESS PERIOD TIME 7.68960E+06 1.28160E+05  2136.0      89.000     0.24367    
         TOTAL TIME 7.77600E+06 1.29600E+05  2160.0      90.000     0.24641    
1
 
 SOLVING FOR HEAD 

 OUTPUT CONTROL FOR STRESS PERIOD    2   TIME STEP   90
    SAVE HEAD FOR ALL LAYERS
    SAVE DRAWDOWN FOR ALL LAYERS
    SAVE BUDGET
    PRINT HEAD FOR ALL LAYERS
    PRINT BUDGET
 UBDSV1 SAVING "         STORAGE" ON UNIT  53 AT TIME STEP 90, STRESS PERIOD   2
 UBDSV2 SAVING "   CONSTANT HEAD" ON UNIT  53 AT TIME STEP 90, STRESS PERIOD   2
 UBDSV1 SAVING "FLOW RIGHT FACE " ON UNIT  53 AT TIME STEP 90, STRESS PERIOD   2
 UBDSV1 SAVING "FLOW FRONT FACE " ON UNIT  53 AT TIME STEP 90, STRESS PERIOD   2
 UBDSV1 SAVING "FLOW LOWER FACE " ON UNIT  53 AT TIME STEP 90, STRESS PERIOD   2

 SAVING SATURATED THICKNESS AND FLOW TERMS ON UNIT   54 FOR MT3DMS
 BY THE LINK-MT3DMS PACKAGE V7 AT TIME STEP   90, STRESS PERIOD    2

1
              HEAD IN LAYER   1 AT END OF TIME STEP  90 IN STRESS PERIOD    2
  ---------------------------------------------------------------------------

            1           2           3           4           5           6           7           8           9          10
 ........................................................................................................................
   1    9.998       8.946       7.880       6.803       5.712       4.605       3.480       2.337       1.179      1.5374E-03
   2    9.998       8.948       7.885       6.810       5.722       4.616       3.490       2.344       1.182      1.5422E-03
   3    9.998       8.952       7.894       6.826       5.744       4.643       3.512       2.359       1.190      1.5518E-03
   4    9.998       8.957       7.906       6.849       5.782       4.694       3.550       2.382       1.200      1.5656E-03
   5    9.998       8.962       7.919       6.877       5.840       4.801       3.609       2.410       1.211      1.5807E-03
   6    9.998       8.965       7.926       6.897       5.908       5.098       3.679       2.430       1.217      1.5895E-03
   7    9.998       8.963       7.920       6.878       5.842       4.803       3.611       2.411       1.212      1.5818E-03
   8    9.998       8.958       7.909       6.853       5.787       4.699       3.555       2.385       1.202      1.5681E-03
   9    9.998       8.954       7.899       6.833       5.753       4.652       3.520       2.365       1.193      1.5564E-03
  10    9.998       8.952       7.893       6.823       5.737       4.633       3.504       2.355       1.188      1.5500E-03
1
              HEAD IN LAYER   2 AT END OF TIME STEP  90 IN STRESS PERIOD    2
  ---------------------------------------------------------------------------

            1           2           3           4           5           6           7           8           9          10
 ........................................................................................................................
   1    9.998       8.944       7.879       6.802       5.711       4.603       3.478       2.336       1.177      2.5284E-03
   2    9.998       8.946       7.884       6.809       5.721       4.615       3.488       2.343       1.181      2.5360E-03
   3    9.998       8.950       7.893       6.824       5.743       4.642       3.511       2.358       1.188      2.5512E-03
   4    9.998       8.956       7.905       6.848       5.781       4.693       3.549       2.380       1.198      2.5732E-03
   5    9.998       8.961       7.918       6.876       5.839       4.799       3.607       2.408       1.209      2.5972E-03
   6    9.998       8.963       7.925       6.896       5.907       5.137       3.677       2.429       1.216      2.6110E-03
   7    9.998       8.961       7.919       6.878       5.841       4.801       3.609       2.410       1.210      2.5989E-03
   8    9.998       8.957       7.908       6.852       5.786       4.698       3.554       2.384       1.200      2.5772E-03
   9    9.998       8.953       7.898       6.832       5.752       4.651       3.519       2.364       1.191      2.5586E-03
  10    9.998       8.950       7.892       6.822       5.737       4.632       3.503       2.354       1.187      2.5485E-03
1
              HEAD IN LAYER   3 AT END OF TIME STEP  90 IN STRESS PERIOD    2
  ---------------------------------------------------------------------------

            1           2           3           4           5           6           7           8           9          10
 ........................................................................................................................
   1    9.998       8.943       7.878       6.801       5.710       4.602       3.477       2.334       1.176      2.5787E-03
   2    9.998       8.945       7.882       6.808       5.720       4.614       3.487       2.342       1.179      2.5865E-03
   3    9.998       8.949       7.892       6.824       5.742       4.641       3.510       2.356       1.186      2.6020E-03
   4    9.998       8.955       7.904       6.847       5.781       4.691       3.548       2.379       1.197      2.6244E-03
   5    9.998       8.960       7.917       6.875       5.838       4.792       3.606       2.407       1.208      2.6489E-03
   6    9.998       8.962       7.925       6.895       5.901       5.026       3.670       2.427       1.214      2.6629E-03
   7    9.998       8.961       7.919       6.877       5.840       4.794       3.608       2.408       1.209      2.6507E-03
   8    9.998       8.956       7.907       6.851       5.786       4.697       3.553       2.383       1.199      2.6286E-03
   9    9.998       8.952       7.897       6.831       5.752       4.650       3.518       2.363       1.190      2.6097E-03
  10    9.998       8.949       7.891       6.821       5.736       4.631       3.503       2.353       1.185      2.5994E-03
1
              HEAD IN LAYER   4 AT END OF TIME STEP  90 IN STRESS PERIOD    2
  ---------------------------------------------------------------------------

            1           2           3           4           5           6           7           8           9          10
 ........................................................................................................................
   1    9.998       8.942       7.877       6.800       5.709       4.602       3.476       2.334       1.175      2.5789E-03
   2    9.998       8.944       7.882       6.808       5.719       4.613       3.487       2.341       1.178      2.5866E-03
   3    9.998       8.949       7.891       6.823       5.742       4.640       3.509       2.355       1.185      2.6022E-03
   4    9.998       8.954       7.903       6.846       5.780       4.690       3.547       2.378       1.196      2.6246E-03
   5    9.998       8.959       7.917       6.875       5.836       4.786       3.604       2.406       1.207      2.6490E-03
   6    9.998       8.962       7.924       6.894       5.895       4.962       3.663       2.425       1.213      2.6630E-03
   7    9.998       8.960       7.918       6.876       5.839       4.789       3.606       2.407       1.208      2.6509E-03
   8    9.998       8.955       7.906       6.851       5.785       4.696       3.552       2.382       1.198      2.6289E-03
   9    9.998       8.951       7.896       6.831       5.751       4.650       3.518       2.362       1.189      2.6099E-03
  10    9.998       8.949       7.890       6.820       5.735       4.631       3.502       2.352       1.184      2.5997E-03
1
              HEAD IN LAYER   5 AT END OF TIME STEP  90 IN STRESS PERIOD    2
  ---------------------------------------------------------------------------

            1           2           3           4           5           6           7           8           9          10
 ........................................................................................................................
   1    9.998       8.942       7.877       6.800       5.709       4.601       3.476       2.333       1.174      2.5779E-03
   2    9.998       8.944       7.881       6.807       5.719       4.613       3.486       2.340       1.178      2.5857E-03
   3    9.998       8.948       7.891       6.823       5.742       4.640       3.509       2.355       1.185      2.6013E-03
   4    9.998       8.954       7.903       6.846       5.780       4.690       3.547       2.378       1.195      2.6237E-03
   5    9.998       8.959       7.916       6.874       5.836       4.783       3.603       2.405       1.206      2.6481E-03
   6    9.998       8.962       7.924       6.894       5.892       4.933       3.660       2.425       1.213      2.6620E-03
   7    9.998       8.960       7.918       6.876       5.838       4.785       3.605       2.407       1.207      2.6500E-03
   8    9.998       8.955       7.906       6.850       5.785       4.695       3.552       2.381       1.197      2.6280E-03
   9    9.998       8.951       7.896       6.830       5.751       4.650       3.518       2.362       1.189      2.6091E-03
  10    9.998       8.948       7.890       6.820       5.735       4.630       3.502       2.352       1.184      2.5988E-03

 HEAD WILL BE SAVED ON UNIT   51 AT END OF TIME STEP   90, STRESS PERIOD    2

 DRAWDOWN WILL BE SAVED ON UNIT   52 AT END OF TIME STEP   90, STRESS PERIOD    2
1
  VOLUMETRIC BUDGET FOR ENTIRE MODEL AT END OF TIME STEP   90, STRESS PERIOD   2
  ------------------------------------------------------------------------------

     CUMULATIVE VOLUMES      L**3       RATES FOR THIS TIME STEP      L**3/T
     ------------------                 ------------------------

           IN:                                      IN:
           ---                                      ---
             STORAGE =           0.0000               STORAGE =           0.0000
       CONSTANT HEAD =           0.0000         CONSTANT HEAD =           0.0000
               WELLS =        9000.0000                 WELLS =         100.0000
     HEAD DEP BOUNDS =      105172.2969       HEAD DEP BOUNDS =        1143.2155

            TOTAL IN =      114172.2969              TOTAL IN =        1243.2155

          OUT:                                     OUT:
          ----                                     ----
             STORAGE =        6564.4497               STORAGE =          44.4377
       CONSTANT HEAD =           0.0000         CONSTANT HEAD =           0.0000
               WELLS =           0.0000                 WELLS =           0.0000
     HEAD DEP BOUNDS =      107605.9062       HEAD DEP BOUNDS =        1198.7335

           TOTAL OUT =      114170.3594             TOTAL OUT =        1243.1713

            IN - OUT =           1.9375              IN - OUT =       4.4189E-02

 PERCENT DISCREPANCY =           0.00     PERCENT DISCREPANCY =           0.00






         TIME SUMMARY AT END OF TIME STEP   90 IN STRESS PERIOD    2
                    SECONDS     MINUTES      HOURS       DAYS        YEARS
                    -----------------------------------------------------------
   TIME STEP LENGTH  86400.      1440.0      24.000      1.0000     2.73785E-03
 STRESS PERIOD TIME 7.77600E+06 1.29600E+05  2160.0      90.000     0.24641    
         TOTAL TIME 7.86240E+06 1.31040E+05  2184.0      91.000     0.24914    
1
 
 SOLVING FOR HEAD 

 OUTPUT CONTROL FOR STRESS PERIOD    2   TIME STEP   91
    SAVE HEAD FOR ALL LAYERS
    SAVE DRAWDOWN FOR ALL LAYERS
    SAVE BUDGET
    PRINT HEAD FOR ALL LAYERS
    PRINT BUDGET
 UBDSV1 SAVING "         STORAGE" ON UNIT  53 AT TIME STEP 91, STRESS PERIOD   2
 UBDSV2 SAVING "   CONSTANT HEAD" ON UNIT  53 AT TIME STEP 91, STRESS PERIOD   2
 UBDSV1 SAVING "FLOW RIGHT FACE " ON UNIT  53 AT TIME STEP 91, STRESS PERIOD   2
 UBDSV1 SAVING "FLOW FRONT FACE " ON UNIT  53 AT TIME STEP 91, STRESS PERIOD   2
 UBDSV1 SAVING "FLOW LOWER FACE " ON UNIT  53 AT TIME STEP 91, STRESS PERIOD   2

 SAVING SATURATED THICKNESS AND FLOW TERMS ON UNIT   54 FOR MT3DMS
 BY THE LINK-MT3DMS PACKAGE V7 AT TIME STEP   91, STRESS PERIOD    2

1
              HEAD IN LAYER   1 AT END OF TIME STEP  91 IN STRESS PERIOD    2
  ---------------------------------------------------------------------------

            1           2           3           4           5           6           7           8           9          10
 ........................................................................................................................
   1    9.998       8.946       7.881       6.803       5.712       4.605       3.480       2.338       1.179      1.5377E-03
   2    9.998       8.948       7.885       6.811       5.723       4.617       3.490       2.345       1.183      1.5424E-03
   3    9.998       8.952       7.894       6.826       5.745       4.643       3.512       2.359       1.190      1.5521E-03
   4    9.998       8.957       7.907       6.849       5.783       4.694       3.551       2.382       1.200      1.5660E-03
   5    9.998       8.962       7.920       6.877       5.841       4.802       3.610       2.410       1.211      1.5812E-03
   6    9.998       8.965       7.927       6.897       5.909       5.099       3.680       2.431       1.218      1.5900E-03
   7    9.998       8.963       7.921       6.879       5.843       4.804       3.612       2.412       1.212      1.5823E-03
   8    9.998       8.959       7.909       6.853       5.788       4.699       3.555       2.386       1.202      1.5684E-03
   9    9.998       8.955       7.899       6.833       5.754       4.653       3.521       2.366       1.193      1.5567E-03
  10    9.998       8.952       7.894       6.823       5.738       4.633       3.505       2.356       1.188      1.5503E-03
1
              HEAD IN LAYER   2 AT END OF TIME STEP  91 IN STRESS PERIOD    2
  ---------------------------------------------------------------------------

            1           2           3           4           5           6           7           8           9          10
 ........................................................................................................................
   1    9.998       8.944       7.879       6.802       5.711       4.604       3.479       2.336       1.177      2.5288E-03
   2    9.998       8.946       7.884       6.810       5.721       4.616       3.489       2.343       1.181      2.5364E-03
   3    9.998       8.951       7.893       6.825       5.744       4.642       3.511       2.358       1.188      2.5517E-03
   4    9.998       8.956       7.905       6.848       5.782       4.693       3.550       2.381       1.198      2.5737E-03
   5    9.998       8.961       7.919       6.876       5.840       4.799       3.608       2.409       1.210      2.5978E-03
   6    9.998       8.964       7.926       6.896       5.907       5.137       3.677       2.429       1.216      2.6116E-03
   7    9.998       8.962       7.920       6.878       5.842       4.802       3.610       2.410       1.210      2.5995E-03
   8    9.998       8.957       7.908       6.852       5.787       4.698       3.554       2.384       1.200      2.5778E-03
   9    9.998       8.953       7.898       6.833       5.753       4.652       3.520       2.365       1.192      2.5592E-03
  10    9.998       8.951       7.892       6.822       5.737       4.632       3.504       2.354       1.187      2.5491E-03
1
              HEAD IN LAYER   3 AT END OF TIME STEP  91 IN STRESS PERIOD    2
  ---------------------------------------------------------------------------

            1           2           3           4           5           6           7           8           9          10
 ........................................................................................................................
   1    9.998       8.943       7.878       6.801       5.710       4.603       3.478       2.335       1.176      2.5792E-03
   2    9.998       8.945       7.883       6.809       5.721       4.615       3.488       2.342       1.179      2.5869E-03
   3    9.998       8.949       7.892       6.824       5.743       4.641       3.510       2.357       1.187      2.6025E-03
   4    9.998       8.955       7.904       6.848       5.781       4.692       3.549       2.379       1.197      2.6250E-03
   5    9.998       8.960       7.918       6.876       5.838       4.793       3.606       2.407       1.208      2.6495E-03
   6    9.998       8.963       7.925       6.896       5.901       5.027       3.670       2.427       1.214      2.6635E-03
   7    9.998       8.961       7.919       6.878       5.840       4.795       3.608       2.409       1.209      2.6513E-03
   8    9.998       8.956       7.907       6.852       5.786       4.697       3.553       2.383       1.199      2.6292E-03
   9    9.998       8.952       7.897       6.832       5.752       4.651       3.519       2.363       1.190      2.6103E-03
  10    9.998       8.950       7.891       6.821       5.737       4.632       3.503       2.353       1.185      2.6000E-03
1
              HEAD IN LAYER   4 AT END OF TIME STEP  91 IN STRESS PERIOD    2
  ---------------------------------------------------------------------------

            1           2           3           4           5           6           7           8           9          10
 ........................................................................................................................
   1    9.998       8.942       7.877       6.801       5.710       4.602       3.477       2.334       1.175      2.5793E-03
   2    9.998       8.945       7.882       6.808       5.720       4.614       3.487       2.341       1.179      2.5871E-03
   3    9.998       8.949       7.891       6.824       5.742       4.641       3.510       2.356       1.186      2.6027E-03
   4    9.998       8.954       7.904       6.847       5.781       4.691       3.548       2.379       1.196      2.6252E-03
   5    9.998       8.959       7.917       6.875       5.837       4.787       3.605       2.406       1.207      2.6496E-03
   6    9.998       8.962       7.924       6.895       5.896       4.963       3.664       2.426       1.213      2.6636E-03
   7    9.998       8.960       7.918       6.877       5.839       4.789       3.607       2.408       1.208      2.6515E-03
   8    9.998       8.956       7.907       6.851       5.786       4.696       3.553       2.382       1.198      2.6295E-03
   9    9.998       8.951       7.897       6.831       5.752       4.651       3.519       2.363       1.189      2.6105E-03
  10    9.998       8.949       7.891       6.821       5.736       4.631       3.503       2.352       1.185      2.6002E-03
1
              HEAD IN LAYER   5 AT END OF TIME STEP  91 IN STRESS PERIOD    2
  ---------------------------------------------------------------------------

            1           2           3           4           5           6           7           8           9          10
 ........................................................................................................................
   1    9.998       8.942       7.877       6.800       5.709       4.602       3.477       2.334       1.175      2.5784E-03
   2    9.998       8.944       7.882       6.808       5.720       4.614       3.487       2.341       1.178      2.5861E-03
   3    9.998       8.948       7.891       6.823       5.742       4.640       3.509       2.355       1.185      2.6018E-03
   4    9.998       8.954       7.904       6.847       5.780       4.691       3.547       2.378       1.195      2.6243E-03
   5    9.998       8.959       7.917       6.875       5.836       4.784       3.604       2.406       1.207      2.6487E-03
   6    9.998       8.962       7.924       6.894       5.892       4.933       3.660       2.425       1.213      2.6626E-03
   7    9.998       8.960       7.918       6.877       5.839       4.786       3.606       2.407       1.207      2.6506E-03
   8    9.998       8.955       7.907       6.851       5.786       4.696       3.552       2.382       1.197      2.6286E-03
   9    9.998       8.951       7.896       6.831       5.752       4.650       3.518       2.362       1.189      2.6096E-03
  10    9.998       8.949       7.891       6.821       5.736       4.631       3.502       2.352       1.184      2.5994E-03

 HEAD WILL BE SAVED ON UNIT   51 AT END OF TIME STEP   91, STRESS PERIOD    2

 DRAWDOWN WILL BE SAVED ON UNIT   52 AT END OF TIME STEP   91, STRESS PERIOD    2
1
  VOLUMETRIC BUDGET FOR ENTIRE MODEL AT END OF TIME STEP   91, STRESS PERIOD   2
  ------------------------------------------------------------------------------

     CUMULATIVE VOLUMES      L**3       RATES FOR THIS TIME STEP      L**3/T
     ------------------                 ------------------------

           IN:                                      IN:
           ---                                      ---
             STORAGE =           0.0000               STORAGE =           0.0000
       CONSTANT HEAD =           0.0000         CONSTANT HEAD =           0.0000
               WELLS =        9100.0000                 WELLS =         100.0000
     HEAD DEP BOUNDS =      106315.2812       HEAD DEP BOUNDS =        1142.9843

            TOTAL IN =      115415.2812              TOTAL IN =        1242.9843

          OUT:                                     OUT:
          ----                                     ----
             STORAGE =        6608.3970               STORAGE =          43.9473
       CONSTANT HEAD =           0.0000         CONSTANT HEAD =           0.0000
               WELLS =           0.0000                 WELLS =           0.0000
     HEAD DEP BOUNDS =      108804.8984       HEAD DEP BOUNDS =        1198.9940

           TOTAL OUT =      115413.2969             TOTAL OUT =        1242.9414

            IN - OUT =           1.9844              IN - OUT =       4.2847E-02

 PERCENT DISCREPANCY =           0.00     PERCENT DISCREPANCY =           0.00






         TIME SUMMARY AT END OF TIME STEP   91 IN STRESS PERIOD    2
                    SECONDS     MINUTES      HOURS       DAYS        YEARS
                    -----------------------------------------------------------
   TIME STEP LENGTH  86400.      1440.0      24.000      1.0000     2.73785E-03
 STRESS PERIOD TIME 7.86240E+06 1.31040E+05  2184.0      91.000     0.24914    
         TOTAL TIME 7.94880E+06 1.32480E+05  2208.0      92.000     0.25188    
1
 
 SOLVING FOR HEAD 

 OUTPUT CONTROL FOR STRESS PERIOD    2   TIME STEP   92
    SAVE HEAD FOR ALL LAYERS
    SAVE DRAWDOWN FOR ALL LAYERS
    SAVE BUDGET
    PRINT HEAD FOR ALL LAYERS
    PRINT BUDGET
 UBDSV1 SAVING "         STORAGE" ON UNIT  53 AT TIME STEP 92, STRESS PERIOD   2
 UBDSV2 SAVING "   CONSTANT HEAD" ON UNIT  53 AT TIME STEP 92, STRESS PERIOD   2
 UBDSV1 SAVING "FLOW RIGHT FACE " ON UNIT  53 AT TIME STEP 92, STRESS PERIOD   2
 UBDSV1 SAVING "FLOW FRONT FACE " ON UNIT  53 AT TIME STEP 92, STRESS PERIOD   2
 UBDSV1 SAVING "FLOW LOWER FACE " ON UNIT  53 AT TIME STEP 92, STRESS PERIOD   2

 SAVING SATURATED THICKNESS AND FLOW TERMS ON UNIT   54 FOR MT3DMS
 BY THE LINK-MT3DMS PACKAGE V7 AT TIME STEP   92, STRESS PERIOD    2

1
              HEAD IN LAYER   1 AT END OF TIME STEP  92 IN STRESS PERIOD    2
  ---------------------------------------------------------------------------

            1           2           3           4           5           6           7           8           9          10
 ........................................................................................................................
   1    9.998       8.946       7.881       6.804       5.713       4.606       3.481       2.338       1.179      1.5379E-03
   2    9.998       8.948       7.886       6.811       5.723       4.617       3.491       2.345       1.183      1.5427E-03
   3    9.998       8.952       7.895       6.827       5.745       4.644       3.513       2.360       1.190      1.5524E-03
   4    9.998       8.958       7.907       6.850       5.784       4.695       3.551       2.383       1.200      1.5664E-03
   5    9.998       8.963       7.920       6.878       5.841       4.802       3.610       2.411       1.212      1.5815E-03
   6    9.998       8.965       7.927       6.898       5.910       5.099       3.681       2.431       1.218      1.5903E-03
   7    9.998       8.963       7.921       6.880       5.843       4.805       3.612       2.412       1.212      1.5826E-03
   8    9.998       8.959       7.910       6.854       5.788       4.700       3.556       2.386       1.202      1.5689E-03
   9    9.998       8.955       7.900       6.834       5.755       4.654       3.522       2.366       1.193      1.5571E-03
  10    9.998       8.952       7.894       6.824       5.739       4.634       3.506       2.356       1.189      1.5507E-03
1
              HEAD IN LAYER   2 AT END OF TIME STEP  92 IN STRESS PERIOD    2
  ---------------------------------------------------------------------------

            1           2           3           4           5           6           7           8           9          10
 ........................................................................................................................
   1    9.998       8.944       7.880       6.803       5.712       4.604       3.479       2.337       1.178      2.5293E-03
   2    9.998       8.947       7.884       6.810       5.722       4.616       3.489       2.344       1.181      2.5369E-03
   3    9.998       8.951       7.893       6.826       5.744       4.643       3.512       2.358       1.188      2.5522E-03
   4    9.998       8.956       7.906       6.849       5.783       4.694       3.550       2.381       1.199      2.5743E-03
   5    9.998       8.961       7.919       6.877       5.840       4.800       3.609       2.409       1.210      2.5984E-03
   6    9.998       8.964       7.926       6.897       5.908       5.138       3.678       2.430       1.216      2.6122E-03
   7    9.998       8.962       7.920       6.879       5.843       4.802       3.611       2.411       1.211      2.6002E-03
   8    9.998       8.958       7.909       6.853       5.788       4.699       3.555       2.385       1.201      2.5784E-03
   9    9.998       8.953       7.899       6.833       5.754       4.653       3.521       2.365       1.192      2.5598E-03
  10    9.998       8.951       7.893       6.823       5.738       4.633       3.505       2.355       1.187      2.5497E-03
1
              HEAD IN LAYER   3 AT END OF TIME STEP  92 IN STRESS PERIOD    2
  ---------------------------------------------------------------------------

            1           2           3           4           5           6           7           8           9          10
 ........................................................................................................................
   1    9.998       8.943       7.878       6.802       5.711       4.603       3.478       2.335       1.176      2.5796E-03
   2    9.998       8.946       7.883       6.809       5.721       4.615       3.488       2.342       1.180      2.5874E-03
   3    9.998       8.950       7.892       6.825       5.744       4.642       3.511       2.357       1.187      2.6030E-03
   4    9.998       8.955       7.905       6.848       5.782       4.693       3.549       2.380       1.197      2.6256E-03
   5    9.998       8.960       7.918       6.876       5.839       4.794       3.607       2.408       1.208      2.6501E-03
   6    9.998       8.963       7.925       6.896       5.902       5.028       3.671       2.428       1.215      2.6641E-03
   7    9.998       8.961       7.919       6.878       5.841       4.796       3.609       2.409       1.209      2.6519E-03
   8    9.998       8.957       7.908       6.852       5.787       4.698       3.554       2.384       1.199      2.6298E-03
   9    9.998       8.952       7.898       6.832       5.753       4.652       3.520       2.364       1.190      2.6109E-03
  10    9.998       8.950       7.892       6.822       5.737       4.632       3.504       2.354       1.186      2.6006E-03
1
              HEAD IN LAYER   4 AT END OF TIME STEP  92 IN STRESS PERIOD    2
  ---------------------------------------------------------------------------

            1           2           3           4           5           6           7           8           9          10
 ........................................................................................................................
   1    9.998       8.943       7.878       6.801       5.710       4.603       3.477       2.334       1.175      2.5797E-03
   2    9.998       8.945       7.882       6.809       5.720       4.615       3.488       2.341       1.179      2.5875E-03
   3    9.998       8.949       7.892       6.824       5.743       4.641       3.510       2.356       1.186      2.6032E-03
   4    9.998       8.954       7.904       6.848       5.781       4.692       3.548       2.379       1.196      2.6257E-03
   5    9.998       8.960       7.918       6.876       5.838       4.788       3.605       2.407       1.207      2.6502E-03
   6    9.998       8.962       7.925       6.895       5.896       4.964       3.665       2.427       1.214      2.6642E-03
   7    9.998       8.960       7.919       6.878       5.840       4.790       3.607       2.408       1.208      2.6521E-03
   8    9.998       8.956       7.907       6.852       5.786       4.697       3.553       2.383       1.198      2.6301E-03
   9    9.998       8.952       7.897       6.832       5.753       4.651       3.519       2.363       1.189      2.6111E-03
  10    9.998       8.949       7.891       6.822       5.737       4.632       3.503       2.353       1.185      2.6008E-03
1
              HEAD IN LAYER   5 AT END OF TIME STEP  92 IN STRESS PERIOD    2
  ---------------------------------------------------------------------------

            1           2           3           4           5           6           7           8           9          10
 ........................................................................................................................
   1    9.998       8.942       7.877       6.801       5.710       4.602       3.477       2.334       1.175      2.5788E-03
   2    9.998       8.944       7.882       6.808       5.720       4.614       3.487       2.341       1.178      2.5866E-03
   3    9.998       8.949       7.891       6.824       5.743       4.641       3.510       2.356       1.185      2.6023E-03
   4    9.998       8.954       7.904       6.847       5.781       4.691       3.548       2.379       1.196      2.6248E-03
   5    9.998       8.959       7.917       6.875       5.837       4.784       3.604       2.406       1.207      2.6493E-03
   6    9.998       8.962       7.925       6.895       5.893       4.934       3.661       2.426       1.213      2.6633E-03
   7    9.998       8.960       7.919       6.877       5.839       4.787       3.607       2.408       1.208      2.6512E-03
   8    9.998       8.956       7.907       6.852       5.786       4.697       3.553       2.382       1.198      2.6292E-03
   9    9.998       8.951       7.897       6.832       5.752       4.651       3.519       2.363       1.189      2.6102E-03
  10    9.998       8.949       7.891       6.821       5.737       4.632       3.503       2.353       1.184      2.5999E-03

 HEAD WILL BE SAVED ON UNIT   51 AT END OF TIME STEP   92, STRESS PERIOD    2

 DRAWDOWN WILL BE SAVED ON UNIT   52 AT END OF TIME STEP   92, STRESS PERIOD    2
1
  VOLUMETRIC BUDGET FOR ENTIRE MODEL AT END OF TIME STEP   92, STRESS PERIOD   2
  ------------------------------------------------------------------------------

     CUMULATIVE VOLUMES      L**3       RATES FOR THIS TIME STEP      L**3/T
     ------------------                 ------------------------

           IN:                                      IN:
           ---                                      ---
             STORAGE =           0.0000               STORAGE =           0.0000
       CONSTANT HEAD =           0.0000         CONSTANT HEAD =           0.0000
               WELLS =        9200.0000                 WELLS =         100.0000
     HEAD DEP BOUNDS =      107458.0312       HEAD DEP BOUNDS =        1142.7480

            TOTAL IN =      116658.0312              TOTAL IN =        1242.7480

          OUT:                                     OUT:
          ----                                     ----
             STORAGE =        6651.8569               STORAGE =          43.4598
       CONSTANT HEAD =           0.0000         CONSTANT HEAD =           0.0000
               WELLS =           0.0000                 WELLS =           0.0000
     HEAD DEP BOUNDS =      110004.1484       HEAD DEP BOUNDS =        1199.2496

           TOTAL OUT =      116656.0078             TOTAL OUT =        1242.7095

            IN - OUT =           2.0234              IN - OUT =       3.8574E-02

 PERCENT DISCREPANCY =           0.00     PERCENT DISCREPANCY =           0.00






         TIME SUMMARY AT END OF TIME STEP   92 IN STRESS PERIOD    2
                    SECONDS     MINUTES      HOURS       DAYS        YEARS
                    -----------------------------------------------------------
   TIME STEP LENGTH  86400.      1440.0      24.000      1.0000     2.73785E-03
 STRESS PERIOD TIME 7.94880E+06 1.32480E+05  2208.0      92.000     0.25188    
         TOTAL TIME 8.03520E+06 1.33920E+05  2232.0      93.000     0.25462    
1
 
 SOLVING FOR HEAD 

 OUTPUT CONTROL FOR STRESS PERIOD    2   TIME STEP   93
    SAVE HEAD FOR ALL LAYERS
    SAVE DRAWDOWN FOR ALL LAYERS
    SAVE BUDGET
    PRINT HEAD FOR ALL LAYERS
    PRINT BUDGET
 UBDSV1 SAVING "         STORAGE" ON UNIT  53 AT TIME STEP 93, STRESS PERIOD   2
 UBDSV2 SAVING "   CONSTANT HEAD" ON UNIT  53 AT TIME STEP 93, STRESS PERIOD   2
 UBDSV1 SAVING "FLOW RIGHT FACE " ON UNIT  53 AT TIME STEP 93, STRESS PERIOD   2
 UBDSV1 SAVING "FLOW FRONT FACE " ON UNIT  53 AT TIME STEP 93, STRESS PERIOD   2
 UBDSV1 SAVING "FLOW LOWER FACE " ON UNIT  53 AT TIME STEP 93, STRESS PERIOD   2

 SAVING SATURATED THICKNESS AND FLOW TERMS ON UNIT   54 FOR MT3DMS
 BY THE LINK-MT3DMS PACKAGE V7 AT TIME STEP   93, STRESS PERIOD    2

1
              HEAD IN LAYER   1 AT END OF TIME STEP  93 IN STRESS PERIOD    2
  ---------------------------------------------------------------------------

            1           2           3           4           5           6           7           8           9          10
 ........................................................................................................................
   1    9.998       8.946       7.881       6.804       5.713       4.606       3.481       2.338       1.180      1.5382E-03
   2    9.998       8.948       7.886       6.812       5.724       4.618       3.491       2.346       1.183      1.5430E-03
   3    9.998       8.952       7.895       6.827       5.746       4.645       3.514       2.360       1.190      1.5527E-03
   4    9.998       8.958       7.907       6.850       5.784       4.696       3.552       2.383       1.201      1.5667E-03
   5    9.998       8.963       7.921       6.878       5.842       4.803       3.611       2.411       1.212      1.5819E-03
   6    9.998       8.965       7.928       6.899       5.910       5.100       3.682       2.432       1.218      1.5908E-03
   7    9.998       8.964       7.922       6.880       5.844       4.805       3.613       2.413       1.213      1.5831E-03
   8    9.998       8.959       7.910       6.855       5.789       4.701       3.557       2.387       1.202      1.5692E-03
   9    9.998       8.955       7.900       6.835       5.755       4.654       3.522       2.367       1.194      1.5575E-03
  10    9.998       8.953       7.894       6.824       5.739       4.635       3.506       2.357       1.189      1.5511E-03
1
              HEAD IN LAYER   2 AT END OF TIME STEP  93 IN STRESS PERIOD    2
  ---------------------------------------------------------------------------

            1           2           3           4           5           6           7           8           9          10
 ........................................................................................................................
   1    9.998       8.945       7.880       6.803       5.712       4.605       3.480       2.337       1.178      2.5297E-03
   2    9.998       8.947       7.885       6.811       5.723       4.617       3.490       2.344       1.181      2.5373E-03
   3    9.998       8.951       7.894       6.826       5.745       4.643       3.512       2.359       1.189      2.5527E-03
   4    9.998       8.956       7.906       6.849       5.783       4.695       3.551       2.382       1.199      2.5748E-03
   5    9.998       8.962       7.919       6.878       5.841       4.801       3.609       2.410       1.210      2.5990E-03
   6    9.998       8.964       7.927       6.898       5.909       5.139       3.679       2.430       1.217      2.6129E-03
   7    9.998       8.962       7.921       6.879       5.843       4.803       3.612       2.411       1.211      2.6008E-03
   8    9.998       8.958       7.909       6.854       5.788       4.700       3.556       2.385       1.201      2.5790E-03
   9    9.998       8.954       7.899       6.834       5.754       4.653       3.521       2.366       1.192      2.5604E-03
  10    9.998       8.951       7.893       6.823       5.739       4.634       3.505       2.355       1.187      2.5502E-03
1
              HEAD IN LAYER   3 AT END OF TIME STEP  93 IN STRESS PERIOD    2
  ---------------------------------------------------------------------------

            1           2           3           4           5           6           7           8           9          10
 ........................................................................................................................
   1    9.998       8.944       7.879       6.802       5.711       4.604       3.479       2.336       1.176      2.5800E-03
   2    9.998       8.946       7.883       6.810       5.722       4.616       3.489       2.343       1.180      2.5878E-03
   3    9.998       8.950       7.893       6.825       5.744       4.643       3.511       2.358       1.187      2.6035E-03
   4    9.998       8.955       7.905       6.849       5.782       4.693       3.550       2.380       1.197      2.6261E-03
   5    9.998       8.961       7.919       6.877       5.840       4.794       3.608       2.408       1.209      2.6506E-03
   6    9.998       8.963       7.926       6.897       5.903       5.029       3.672       2.428       1.215      2.6647E-03
   7    9.998       8.961       7.920       6.879       5.842       4.797       3.610       2.410       1.209      2.6525E-03
   8    9.998       8.957       7.908       6.853       5.788       4.699       3.555       2.384       1.199      2.6304E-03
   9    9.998       8.953       7.898       6.833       5.754       4.653       3.520       2.364       1.191      2.6114E-03
  10    9.998       8.950       7.892       6.823       5.738       4.633       3.505       2.354       1.186      2.6011E-03
1
              HEAD IN LAYER   4 AT END OF TIME STEP  93 IN STRESS PERIOD    2
  ---------------------------------------------------------------------------

            1           2           3           4           5           6           7           8           9          10
 ........................................................................................................................
   1    9.998       8.943       7.878       6.801       5.711       4.603       3.478       2.335       1.175      2.5801E-03
   2    9.998       8.945       7.883       6.809       5.721       4.615       3.488       2.342       1.179      2.5880E-03
   3    9.998       8.949       7.892       6.825       5.744       4.642       3.511       2.357       1.186      2.6037E-03
   4    9.998       8.955       7.905       6.848       5.782       4.692       3.549       2.379       1.196      2.6263E-03
   5    9.998       8.960       7.918       6.876       5.838       4.788       3.606       2.407       1.208      2.6508E-03
   6    9.998       8.963       7.925       6.896       5.897       4.964       3.665       2.427       1.214      2.6648E-03
   7    9.998       8.961       7.919       6.878       5.841       4.791       3.608       2.409       1.208      2.6527E-03
   8    9.998       8.956       7.908       6.853       5.787       4.698       3.554       2.383       1.198      2.6307E-03
   9    9.998       8.952       7.897       6.833       5.753       4.652       3.520       2.364       1.190      2.6117E-03
  10    9.998       8.949       7.892       6.822       5.737       4.633       3.504       2.353       1.185      2.6014E-03
1
              HEAD IN LAYER   5 AT END OF TIME STEP  93 IN STRESS PERIOD    2
  ---------------------------------------------------------------------------

            1           2           3           4           5           6           7           8           9          10
 ........................................................................................................................
   1    9.998       8.942       7.878       6.801       5.710       4.603       3.477       2.334       1.175      2.5792E-03
   2    9.998       8.945       7.882       6.809       5.721       4.615       3.488       2.341       1.178      2.5870E-03
   3    9.998       8.949       7.892       6.824       5.743       4.642       3.510       2.356       1.186      2.6028E-03
   4    9.998       8.954       7.904       6.848       5.782       4.692       3.549       2.379       1.196      2.6254E-03
   5    9.998       8.960       7.918       6.876       5.838       4.785       3.605       2.407       1.207      2.6499E-03
   6    9.998       8.962       7.925       6.895       5.894       4.935       3.662       2.426       1.214      2.6639E-03
   7    9.998       8.960       7.919       6.878       5.840       4.787       3.607       2.408       1.208      2.6518E-03
   8    9.998       8.956       7.907       6.852       5.787       4.697       3.554       2.383       1.198      2.6298E-03
   9    9.998       8.952       7.897       6.832       5.753       4.652       3.519       2.363       1.189      2.6108E-03
  10    9.998       8.949       7.891       6.822       5.737       4.632       3.504       2.353       1.185      2.6005E-03

 HEAD WILL BE SAVED ON UNIT   51 AT END OF TIME STEP   93, STRESS PERIOD    2

 DRAWDOWN WILL BE SAVED ON UNIT   52 AT END OF TIME STEP   93, STRESS PERIOD    2
1
  VOLUMETRIC BUDGET FOR ENTIRE MODEL AT END OF TIME STEP   93, STRESS PERIOD   2
  ------------------------------------------------------------------------------

     CUMULATIVE VOLUMES      L**3       RATES FOR THIS TIME STEP      L**3/T
     ------------------                 ------------------------

           IN:                                      IN:
           ---                                      ---
             STORAGE =           0.0000               STORAGE =           0.0000
       CONSTANT HEAD =           0.0000         CONSTANT HEAD =           0.0000
               WELLS =        9300.0000                 WELLS =         100.0000
     HEAD DEP BOUNDS =      108600.5547       HEAD DEP BOUNDS =        1142.5215

            TOTAL IN =      117900.5547              TOTAL IN =        1242.5215

          OUT:                                     OUT:
          ----                                     ----
             STORAGE =        6694.8267               STORAGE =          42.9699
       CONSTANT HEAD =           0.0000         CONSTANT HEAD =           0.0000
               WELLS =           0.0000                 WELLS =           0.0000
     HEAD DEP BOUNDS =      111203.6562       HEAD DEP BOUNDS =        1199.5060

           TOTAL OUT =      117898.4844             TOTAL OUT =        1242.4758

            IN - OUT =           2.0703              IN - OUT =       4.5654E-02

 PERCENT DISCREPANCY =           0.00     PERCENT DISCREPANCY =           0.00






         TIME SUMMARY AT END OF TIME STEP   93 IN STRESS PERIOD    2
                    SECONDS     MINUTES      HOURS       DAYS        YEARS
                    -----------------------------------------------------------
   TIME STEP LENGTH  86400.      1440.0      24.000      1.0000     2.73785E-03
 STRESS PERIOD TIME 8.03520E+06 1.33920E+05  2232.0      93.000     0.25462    
         TOTAL TIME 8.12160E+06 1.35360E+05  2256.0      94.000     0.25736    
1
 
 SOLVING FOR HEAD 

 OUTPUT CONTROL FOR STRESS PERIOD    2   TIME STEP   94
    SAVE HEAD FOR ALL LAYERS
    SAVE DRAWDOWN FOR ALL LAYERS
    SAVE BUDGET
    PRINT HEAD FOR ALL LAYERS
    PRINT BUDGET
 UBDSV1 SAVING "         STORAGE" ON UNIT  53 AT TIME STEP 94, STRESS PERIOD   2
 UBDSV2 SAVING "   CONSTANT HEAD" ON UNIT  53 AT TIME STEP 94, STRESS PERIOD   2
 UBDSV1 SAVING "FLOW RIGHT FACE " ON UNIT  53 AT TIME STEP 94, STRESS PERIOD   2
 UBDSV1 SAVING "FLOW FRONT FACE " ON UNIT  53 AT TIME STEP 94, STRESS PERIOD   2
 UBDSV1 SAVING "FLOW LOWER FACE " ON UNIT  53 AT TIME STEP 94, STRESS PERIOD   2

 SAVING SATURATED THICKNESS AND FLOW TERMS ON UNIT   54 FOR MT3DMS
 BY THE LINK-MT3DMS PACKAGE V7 AT TIME STEP   94, STRESS PERIOD    2

1
              HEAD IN LAYER   1 AT END OF TIME STEP  94 IN STRESS PERIOD    2
  ---------------------------------------------------------------------------

            1           2           3           4           5           6           7           8           9          10
 ........................................................................................................................
   1    9.998       8.946       7.882       6.805       5.714       4.607       3.482       2.339       1.180      1.5385E-03
   2    9.998       8.948       7.886       6.812       5.724       4.618       3.492       2.346       1.183      1.5433E-03
   3    9.998       8.953       7.895       6.828       5.747       4.645       3.514       2.361       1.190      1.5530E-03
   4    9.998       8.958       7.908       6.851       5.785       4.696       3.553       2.384       1.201      1.5670E-03
   5    9.998       8.963       7.921       6.879       5.843       4.804       3.612       2.412       1.212      1.5823E-03
   6    9.998       8.966       7.928       6.899       5.911       5.101       3.682       2.432       1.219      1.5911E-03
   7    9.998       8.964       7.922       6.881       5.845       4.806       3.614       2.413       1.213      1.5834E-03
   8    9.998       8.959       7.911       6.855       5.790       4.702       3.557       2.387       1.203      1.5696E-03
   9    9.998       8.955       7.901       6.835       5.756       4.655       3.523       2.367       1.194      1.5579E-03
  10    9.998       8.953       7.895       6.825       5.740       4.636       3.507       2.357       1.189      1.5514E-03
1
              HEAD IN LAYER   2 AT END OF TIME STEP  94 IN STRESS PERIOD    2
  ---------------------------------------------------------------------------

            1           2           3           4           5           6           7           8           9          10
 ........................................................................................................................
   1    9.998       8.945       7.880       6.803       5.713       4.606       3.480       2.337       1.178      2.5301E-03
   2    9.998       8.947       7.885       6.811       5.723       4.617       3.491       2.344       1.182      2.5378E-03
   3    9.998       8.951       7.894       6.827       5.746       4.644       3.513       2.359       1.189      2.5532E-03
   4    9.998       8.957       7.907       6.850       5.784       4.695       3.551       2.382       1.199      2.5754E-03
   5    9.998       8.962       7.920       6.878       5.842       4.802       3.610       2.410       1.210      2.5995E-03
   6    9.998       8.964       7.927       6.898       5.910       5.140       3.679       2.431       1.217      2.6135E-03
   7    9.998       8.962       7.921       6.880       5.844       4.804       3.612       2.412       1.211      2.6014E-03
   8    9.998       8.958       7.910       6.854       5.789       4.701       3.556       2.386       1.201      2.5796E-03
   9    9.998       8.954       7.899       6.834       5.755       4.654       3.522       2.366       1.192      2.5609E-03
  10    9.998       8.951       7.894       6.824       5.739       4.635       3.506       2.356       1.188      2.5508E-03
1
              HEAD IN LAYER   3 AT END OF TIME STEP  94 IN STRESS PERIOD    2
  ---------------------------------------------------------------------------

            1           2           3           4           5           6           7           8           9          10
 ........................................................................................................................
   1    9.998       8.944       7.879       6.802       5.712       4.605       3.479       2.336       1.177      2.5804E-03
   2    9.998       8.946       7.884       6.810       5.722       4.616       3.489       2.343       1.180      2.5883E-03
   3    9.998       8.950       7.893       6.826       5.745       4.643       3.512       2.358       1.187      2.6040E-03
   4    9.998       8.955       7.906       6.849       5.783       4.694       3.550       2.381       1.198      2.6266E-03
   5    9.998       8.961       7.919       6.877       5.840       4.795       3.608       2.409       1.209      2.6512E-03
   6    9.998       8.963       7.926       6.897       5.904       5.029       3.672       2.429       1.215      2.6654E-03
   7    9.998       8.961       7.920       6.879       5.843       4.798       3.610       2.410       1.210      2.6532E-03
   8    9.998       8.957       7.909       6.854       5.788       4.700       3.555       2.385       1.200      2.6310E-03
   9    9.998       8.953       7.898       6.834       5.754       4.653       3.521       2.365       1.191      2.6120E-03
  10    9.998       8.950       7.893       6.823       5.739       4.634       3.505       2.355       1.186      2.6017E-03
1
              HEAD IN LAYER   4 AT END OF TIME STEP  94 IN STRESS PERIOD    2
  ---------------------------------------------------------------------------

            1           2           3           4           5           6           7           8           9          10
 ........................................................................................................................
   1    9.998       8.943       7.878       6.802       5.711       4.604       3.478       2.335       1.176      2.5806E-03
   2    9.998       8.945       7.883       6.809       5.722       4.616       3.489       2.342       1.179      2.5884E-03
   3    9.998       8.949       7.892       6.825       5.744       4.643       3.511       2.357       1.186      2.6042E-03
   4    9.998       8.955       7.905       6.849       5.783       4.693       3.550       2.380       1.197      2.6268E-03
   5    9.998       8.960       7.918       6.877       5.839       4.789       3.607       2.408       1.208      2.6514E-03
   6    9.998       8.963       7.926       6.897       5.898       4.965       3.666       2.428       1.214      2.6654E-03
   7    9.998       8.961       7.920       6.879       5.841       4.792       3.609       2.409       1.209      2.6533E-03
   8    9.998       8.956       7.908       6.853       5.788       4.699       3.555       2.384       1.199      2.6313E-03
   9    9.998       8.952       7.898       6.833       5.754       4.653       3.520       2.364       1.190      2.6123E-03
  10    9.998       8.950       7.892       6.823       5.738       4.633       3.505       2.354       1.185      2.6019E-03
1
              HEAD IN LAYER   5 AT END OF TIME STEP  94 IN STRESS PERIOD    2
  ---------------------------------------------------------------------------

            1           2           3           4           5           6           7           8           9          10
 ........................................................................................................................
   1    9.998       8.943       7.878       6.801       5.711       4.604       3.478       2.335       1.175      2.5796E-03
   2    9.998       8.945       7.883       6.809       5.721       4.615       3.488       2.342       1.179      2.5875E-03
   3    9.998       8.949       7.892       6.825       5.744       4.642       3.511       2.357       1.186      2.6032E-03
   4    9.998       8.954       7.905       6.848       5.782       4.693       3.549       2.379       1.196      2.6259E-03
   5    9.998       8.960       7.918       6.877       5.838       4.786       3.606       2.407       1.207      2.6504E-03
   6    9.998       8.962       7.925       6.896       5.895       4.936       3.662       2.427       1.214      2.6644E-03
   7    9.998       8.961       7.919       6.879       5.841       4.788       3.608       2.409       1.208      2.6524E-03
   8    9.998       8.956       7.908       6.853       5.788       4.698       3.554       2.383       1.198      2.6304E-03
   9    9.998       8.952       7.898       6.833       5.754       4.653       3.520       2.364       1.190      2.6114E-03
  10    9.998       8.949       7.892       6.822       5.738       4.633       3.504       2.353       1.185      2.6011E-03

 HEAD WILL BE SAVED ON UNIT   51 AT END OF TIME STEP   94, STRESS PERIOD    2

 DRAWDOWN WILL BE SAVED ON UNIT   52 AT END OF TIME STEP   94, STRESS PERIOD    2
1
  VOLUMETRIC BUDGET FOR ENTIRE MODEL AT END OF TIME STEP   94, STRESS PERIOD   2
  ------------------------------------------------------------------------------

     CUMULATIVE VOLUMES      L**3       RATES FOR THIS TIME STEP      L**3/T
     ------------------                 ------------------------

           IN:                                      IN:
           ---                                      ---
             STORAGE =           0.0000               STORAGE =           0.0000
       CONSTANT HEAD =           0.0000         CONSTANT HEAD =           0.0000
               WELLS =        9400.0000                 WELLS =         100.0000
     HEAD DEP BOUNDS =      109742.8438       HEAD DEP BOUNDS =        1142.2899

            TOTAL IN =      119142.8438              TOTAL IN =        1242.2899

          OUT:                                     OUT:
          ----                                     ----
             STORAGE =        6737.3203               STORAGE =          42.4938
       CONSTANT HEAD =           0.0000         CONSTANT HEAD =           0.0000
               WELLS =           0.0000                 WELLS =           0.0000
     HEAD DEP BOUNDS =      112403.4141       HEAD DEP BOUNDS =        1199.7549

           TOTAL OUT =      119140.7344             TOTAL OUT =        1242.2488

            IN - OUT =           2.1094              IN - OUT =       4.1138E-02

 PERCENT DISCREPANCY =           0.00     PERCENT DISCREPANCY =           0.00






         TIME SUMMARY AT END OF TIME STEP   94 IN STRESS PERIOD    2
                    SECONDS     MINUTES      HOURS       DAYS        YEARS
                    -----------------------------------------------------------
   TIME STEP LENGTH  86400.      1440.0      24.000      1.0000     2.73785E-03
 STRESS PERIOD TIME 8.12160E+06 1.35360E+05  2256.0      94.000     0.25736    
         TOTAL TIME 8.20800E+06 1.36800E+05  2280.0      95.000     0.26010    
1
 
 SOLVING FOR HEAD 

 OUTPUT CONTROL FOR STRESS PERIOD    2   TIME STEP   95
    SAVE HEAD FOR ALL LAYERS
    SAVE DRAWDOWN FOR ALL LAYERS
    SAVE BUDGET
    PRINT HEAD FOR ALL LAYERS
    PRINT BUDGET
 UBDSV1 SAVING "         STORAGE" ON UNIT  53 AT TIME STEP 95, STRESS PERIOD   2
 UBDSV2 SAVING "   CONSTANT HEAD" ON UNIT  53 AT TIME STEP 95, STRESS PERIOD   2
 UBDSV1 SAVING "FLOW RIGHT FACE " ON UNIT  53 AT TIME STEP 95, STRESS PERIOD   2
 UBDSV1 SAVING "FLOW FRONT FACE " ON UNIT  53 AT TIME STEP 95, STRESS PERIOD   2
 UBDSV1 SAVING "FLOW LOWER FACE " ON UNIT  53 AT TIME STEP 95, STRESS PERIOD   2

 SAVING SATURATED THICKNESS AND FLOW TERMS ON UNIT   54 FOR MT3DMS
 BY THE LINK-MT3DMS PACKAGE V7 AT TIME STEP   95, STRESS PERIOD    2

1
              HEAD IN LAYER   1 AT END OF TIME STEP  95 IN STRESS PERIOD    2
  ---------------------------------------------------------------------------

            1           2           3           4           5           6           7           8           9          10
 ........................................................................................................................
   1    9.998       8.947       7.882       6.805       5.714       4.607       3.482       2.339       1.180      1.5387E-03
   2    9.998       8.949       7.887       6.813       5.725       4.619       3.492       2.346       1.184      1.5436E-03
   3    9.998       8.953       7.896       6.828       5.747       4.646       3.515       2.361       1.191      1.5533E-03
   4    9.998       8.958       7.908       6.852       5.786       4.697       3.553       2.384       1.201      1.5673E-03
   5    9.998       8.963       7.921       6.880       5.843       4.805       3.612       2.412       1.212      1.5826E-03
   6    9.998       8.966       7.929       6.900       5.912       5.102       3.683       2.433       1.219      1.5915E-03
   7    9.998       8.964       7.923       6.882       5.846       4.807       3.614       2.414       1.213      1.5838E-03
   8    9.998       8.960       7.911       6.856       5.791       4.702       3.558       2.388       1.203      1.5700E-03
   9    9.998       8.955       7.901       6.836       5.757       4.656       3.524       2.368       1.194      1.5583E-03
  10    9.998       8.953       7.895       6.826       5.741       4.636       3.508       2.358       1.190      1.5518E-03
1
              HEAD IN LAYER   2 AT END OF TIME STEP  95 IN STRESS PERIOD    2
  ---------------------------------------------------------------------------

            1           2           3           4           5           6           7           8           9          10
 ........................................................................................................................
   1    9.998       8.945       7.881       6.804       5.713       4.606       3.481       2.338       1.178      2.5305E-03
   2    9.998       8.947       7.885       6.812       5.724       4.618       3.491       2.345       1.182      2.5382E-03
   3    9.998       8.951       7.894       6.827       5.746       4.645       3.514       2.360       1.189      2.5537E-03
   4    9.998       8.957       7.907       6.851       5.785       4.696       3.552       2.383       1.199      2.5759E-03
   5    9.998       8.962       7.920       6.879       5.842       4.802       3.611       2.411       1.211      2.6001E-03
   6    9.998       8.965       7.928       6.899       5.910       5.140       3.680       2.431       1.217      2.6141E-03
   7    9.998       8.963       7.922       6.881       5.845       4.805       3.613       2.412       1.211      2.6020E-03
   8    9.998       8.958       7.910       6.855       5.790       4.701       3.557       2.386       1.201      2.5802E-03
   9    9.998       8.954       7.900       6.835       5.756       4.655       3.523       2.367       1.193      2.5615E-03
  10    9.998       8.952       7.894       6.825       5.740       4.635       3.507       2.356       1.188      2.5514E-03
1
              HEAD IN LAYER   3 AT END OF TIME STEP  95 IN STRESS PERIOD    2
  ---------------------------------------------------------------------------

            1           2           3           4           5           6           7           8           9          10
 ........................................................................................................................
   1    9.998       8.944       7.879       6.803       5.712       4.605       3.480       2.336       1.177      2.5809E-03
   2    9.998       8.946       7.884       6.811       5.723       4.617       3.490       2.343       1.180      2.5887E-03
   3    9.998       8.950       7.893       6.826       5.745       4.644       3.512       2.358       1.188      2.6045E-03
   4    9.998       8.956       7.906       6.850       5.784       4.695       3.551       2.381       1.198      2.6272E-03
   5    9.998       8.961       7.919       6.878       5.841       4.796       3.609       2.409       1.209      2.6518E-03
   6    9.998       8.964       7.927       6.898       5.904       5.030       3.673       2.429       1.216      2.6659E-03
   7    9.998       8.962       7.921       6.880       5.843       4.798       3.611       2.411       1.210      2.6538E-03
   8    9.998       8.957       7.909       6.854       5.789       4.700       3.556       2.385       1.200      2.6316E-03
   9    9.998       8.953       7.899       6.834       5.755       4.654       3.522       2.365       1.191      2.6126E-03
  10    9.998       8.951       7.893       6.824       5.739       4.635       3.506       2.355       1.186      2.6023E-03
1
              HEAD IN LAYER   4 AT END OF TIME STEP  95 IN STRESS PERIOD    2
  ---------------------------------------------------------------------------

            1           2           3           4           5           6           7           8           9          10
 ........................................................................................................................
   1    9.998       8.943       7.879       6.802       5.712       4.604       3.479       2.335       1.176      2.5810E-03
   2    9.998       8.945       7.883       6.810       5.722       4.616       3.489       2.343       1.179      2.5889E-03
   3    9.998       8.950       7.893       6.826       5.745       4.643       3.512       2.357       1.187      2.6047E-03
   4    9.998       8.955       7.905       6.849       5.783       4.694       3.550       2.380       1.197      2.6273E-03
   5    9.998       8.960       7.919       6.877       5.840       4.790       3.607       2.408       1.208      2.6519E-03
   6    9.998       8.963       7.926       6.897       5.899       4.966       3.667       2.428       1.215      2.6660E-03
   7    9.998       8.961       7.920       6.879       5.842       4.792       3.609       2.410       1.209      2.6539E-03
   8    9.998       8.957       7.909       6.854       5.789       4.699       3.555       2.384       1.199      2.6318E-03
   9    9.998       8.952       7.898       6.834       5.755       4.653       3.521       2.364       1.190      2.6128E-03
  10    9.998       8.950       7.893       6.823       5.739       4.634       3.505       2.354       1.186      2.6025E-03
1
              HEAD IN LAYER   5 AT END OF TIME STEP  95 IN STRESS PERIOD    2
  ---------------------------------------------------------------------------

            1           2           3           4           5           6           7           8           9          10
 ........................................................................................................................
   1    9.998       8.943       7.878       6.802       5.711       4.604       3.478       2.335       1.175      2.5800E-03
   2    9.998       8.945       7.883       6.810       5.722       4.616       3.489       2.342       1.179      2.5879E-03
   3    9.998       8.949       7.892       6.825       5.745       4.643       3.511       2.357       1.186      2.6037E-03
   4    9.998       8.955       7.905       6.849       5.783       4.693       3.550       2.380       1.196      2.6264E-03
   5    9.998       8.960       7.918       6.877       5.839       4.786       3.606       2.408       1.208      2.6510E-03
   6    9.998       8.963       7.926       6.897       5.895       4.936       3.663       2.427       1.214      2.6650E-03
   7    9.998       8.961       7.920       6.879       5.841       4.789       3.609       2.409       1.209      2.6530E-03
   8    9.998       8.956       7.908       6.853       5.788       4.699       3.555       2.384       1.198      2.6309E-03
   9    9.998       8.952       7.898       6.833       5.754       4.653       3.521       2.364       1.190      2.6119E-03
  10    9.998       8.950       7.892       6.823       5.739       4.634       3.505       2.354       1.185      2.6016E-03

 HEAD WILL BE SAVED ON UNIT   51 AT END OF TIME STEP   95, STRESS PERIOD    2

 DRAWDOWN WILL BE SAVED ON UNIT   52 AT END OF TIME STEP   95, STRESS PERIOD    2
1
  VOLUMETRIC BUDGET FOR ENTIRE MODEL AT END OF TIME STEP   95, STRESS PERIOD   2
  ------------------------------------------------------------------------------

     CUMULATIVE VOLUMES      L**3       RATES FOR THIS TIME STEP      L**3/T
     ------------------                 ------------------------

           IN:                                      IN:
           ---                                      ---
             STORAGE =           0.0000               STORAGE =           0.0000
       CONSTANT HEAD =           0.0000         CONSTANT HEAD =           0.0000
               WELLS =        9500.0000                 WELLS =         100.0000
     HEAD DEP BOUNDS =      110884.9062       HEAD DEP BOUNDS =        1142.0604

            TOTAL IN =      120384.9062              TOTAL IN =        1242.0604

          OUT:                                     OUT:
          ----                                     ----
             STORAGE =        6779.3413               STORAGE =          42.0211
       CONSTANT HEAD =           0.0000         CONSTANT HEAD =           0.0000
               WELLS =           0.0000                 WELLS =           0.0000
     HEAD DEP BOUNDS =      113603.4141       HEAD DEP BOUNDS =        1200.0026

           TOTAL OUT =      120382.7578             TOTAL OUT =        1242.0237

            IN - OUT =           2.1484              IN - OUT =       3.6743E-02

 PERCENT DISCREPANCY =           0.00     PERCENT DISCREPANCY =           0.00






         TIME SUMMARY AT END OF TIME STEP   95 IN STRESS PERIOD    2
                    SECONDS     MINUTES      HOURS       DAYS        YEARS
                    -----------------------------------------------------------
   TIME STEP LENGTH  86400.      1440.0      24.000      1.0000     2.73785E-03
 STRESS PERIOD TIME 8.20800E+06 1.36800E+05  2280.0      95.000     0.26010    
         TOTAL TIME 8.29440E+06 1.38240E+05  2304.0      96.000     0.26283    
1
 
 SOLVING FOR HEAD 

 OUTPUT CONTROL FOR STRESS PERIOD    2   TIME STEP   96
    SAVE HEAD FOR ALL LAYERS
    SAVE DRAWDOWN FOR ALL LAYERS
    SAVE BUDGET
    PRINT HEAD FOR ALL LAYERS
    PRINT BUDGET
 UBDSV1 SAVING "         STORAGE" ON UNIT  53 AT TIME STEP 96, STRESS PERIOD   2
 UBDSV2 SAVING "   CONSTANT HEAD" ON UNIT  53 AT TIME STEP 96, STRESS PERIOD   2
 UBDSV1 SAVING "FLOW RIGHT FACE " ON UNIT  53 AT TIME STEP 96, STRESS PERIOD   2
 UBDSV1 SAVING "FLOW FRONT FACE " ON UNIT  53 AT TIME STEP 96, STRESS PERIOD   2
 UBDSV1 SAVING "FLOW LOWER FACE " ON UNIT  53 AT TIME STEP 96, STRESS PERIOD   2

 SAVING SATURATED THICKNESS AND FLOW TERMS ON UNIT   54 FOR MT3DMS
 BY THE LINK-MT3DMS PACKAGE V7 AT TIME STEP   96, STRESS PERIOD    2

1
              HEAD IN LAYER   1 AT END OF TIME STEP  96 IN STRESS PERIOD    2
  ---------------------------------------------------------------------------

            1           2           3           4           5           6           7           8           9          10
 ........................................................................................................................
   1    9.998       8.947       7.882       6.806       5.715       4.608       3.482       2.340       1.180      1.5390E-03
   2    9.998       8.949       7.887       6.813       5.725       4.620       3.493       2.347       1.184      1.5439E-03
   3    9.998       8.953       7.896       6.829       5.748       4.646       3.515       2.362       1.191      1.5537E-03
   4    9.998       8.958       7.909       6.852       5.786       4.698       3.554       2.385       1.201      1.5676E-03
   5    9.998       8.964       7.922       6.880       5.844       4.805       3.613       2.413       1.213      1.5831E-03
   6    9.998       8.966       7.929       6.900       5.913       5.102       3.684       2.433       1.219      1.5919E-03
   7    9.998       8.964       7.923       6.882       5.846       4.808       3.615       2.414       1.213      1.5842E-03
   8    9.998       8.960       7.912       6.856       5.791       4.703       3.559       2.388       1.203      1.5704E-03
   9    9.998       8.956       7.901       6.837       5.757       4.656       3.524       2.368       1.195      1.5586E-03
  10    9.998       8.953       7.896       6.826       5.742       4.637       3.508       2.358       1.190      1.5522E-03
1
              HEAD IN LAYER   2 AT END OF TIME STEP  96 IN STRESS PERIOD    2
  ---------------------------------------------------------------------------

            1           2           3           4           5           6           7           8           9          10
 ........................................................................................................................
   1    9.998       8.945       7.881       6.804       5.714       4.607       3.481       2.338       1.178      2.5309E-03
   2    9.998       8.947       7.886       6.812       5.724       4.618       3.492       2.345       1.182      2.5387E-03
   3    9.998       8.951       7.895       6.828       5.747       4.645       3.514       2.360       1.189      2.5542E-03
   4    9.998       8.957       7.907       6.851       5.785       4.697       3.553       2.383       1.200      2.5764E-03
   5    9.998       8.962       7.921       6.879       5.843       4.803       3.611       2.411       1.211      2.6007E-03
   6    9.998       8.965       7.928       6.900       5.911       5.141       3.681       2.432       1.217      2.6147E-03
   7    9.998       8.963       7.922       6.881       5.845       4.805       3.614       2.413       1.212      2.6026E-03
   8    9.998       8.959       7.911       6.856       5.791       4.702       3.558       2.387       1.202      2.5808E-03
   9    9.998       8.954       7.900       6.836       5.757       4.656       3.523       2.367       1.193      2.5621E-03
  10    9.998       8.952       7.895       6.825       5.741       4.636       3.507       2.357       1.188      2.5519E-03
1
              HEAD IN LAYER   3 AT END OF TIME STEP  96 IN STRESS PERIOD    2
  ---------------------------------------------------------------------------

            1           2           3           4           5           6           7           8           9          10
 ........................................................................................................................
   1    9.998       8.944       7.880       6.803       5.713       4.606       3.480       2.337       1.177      2.5813E-03
   2    9.998       8.946       7.884       6.811       5.723       4.617       3.490       2.344       1.181      2.5892E-03
   3    9.998       8.950       7.894       6.827       5.746       4.644       3.513       2.359       1.188      2.6050E-03
   4    9.998       8.956       7.906       6.850       5.784       4.695       3.551       2.382       1.198      2.6277E-03
   5    9.998       8.961       7.920       6.879       5.842       4.797       3.609       2.410       1.209      2.6524E-03
   6    9.998       8.964       7.927       6.899       5.905       5.031       3.674       2.430       1.216      2.6665E-03
   7    9.998       8.962       7.921       6.881       5.844       4.799       3.612       2.411       1.210      2.6544E-03
   8    9.998       8.958       7.910       6.855       5.790       4.701       3.557       2.386       1.200      2.6322E-03
   9    9.998       8.953       7.899       6.835       5.756       4.655       3.522       2.366       1.191      2.6132E-03
  10    9.998       8.951       7.894       6.824       5.740       4.635       3.506       2.356       1.187      2.6028E-03
1
              HEAD IN LAYER   4 AT END OF TIME STEP  96 IN STRESS PERIOD    2
  ---------------------------------------------------------------------------

            1           2           3           4           5           6           7           8           9          10
 ........................................................................................................................
   1    9.998       8.943       7.879       6.803       5.712       4.605       3.479       2.336       1.176      2.5814E-03
   2    9.998       8.945       7.884       6.810       5.723       4.617       3.490       2.343       1.180      2.5893E-03
   3    9.998       8.950       7.893       6.826       5.745       4.644       3.512       2.358       1.187      2.6051E-03
   4    9.998       8.955       7.906       6.850       5.784       4.694       3.551       2.381       1.197      2.6279E-03
   5    9.998       8.961       7.919       6.878       5.840       4.790       3.608       2.409       1.208      2.6525E-03
   6    9.998       8.963       7.927       6.898       5.899       4.967       3.667       2.429       1.215      2.6666E-03
   7    9.998       8.961       7.921       6.880       5.843       4.793       3.610       2.410       1.209      2.6545E-03
   8    9.998       8.957       7.909       6.854       5.789       4.700       3.556       2.385       1.199      2.6324E-03
   9    9.998       8.953       7.899       6.834       5.755       4.654       3.522       2.365       1.191      2.6134E-03
  10    9.998       8.950       7.893       6.824       5.739       4.635       3.506       2.355       1.186      2.6031E-03
1
              HEAD IN LAYER   5 AT END OF TIME STEP  96 IN STRESS PERIOD    2
  ---------------------------------------------------------------------------

            1           2           3           4           5           6           7           8           9          10
 ........................................................................................................................
   1    9.998       8.943       7.879       6.802       5.712       4.605       3.479       2.335       1.175      2.5805E-03
   2    9.998       8.945       7.883       6.810       5.722       4.616       3.489       2.342       1.179      2.5884E-03
   3    9.998       8.949       7.893       6.826       5.745       4.643       3.512       2.357       1.186      2.6042E-03
   4    9.998       8.955       7.906       6.849       5.783       4.694       3.550       2.380       1.197      2.6269E-03
   5    9.998       8.960       7.919       6.878       5.840       4.787       3.607       2.408       1.208      2.6515E-03
   6    9.998       8.963       7.926       6.897       5.896       4.937       3.664       2.428       1.214      2.6656E-03
   7    9.998       8.961       7.920       6.880       5.842       4.790       3.609       2.410       1.209      2.6536E-03
   8    9.998       8.957       7.909       6.854       5.789       4.700       3.555       2.384       1.199      2.6315E-03
   9    9.998       8.952       7.898       6.834       5.755       4.654       3.521       2.365       1.190      2.6125E-03
  10    9.998       8.950       7.893       6.824       5.739       4.634       3.505       2.354       1.185      2.6022E-03

 HEAD WILL BE SAVED ON UNIT   51 AT END OF TIME STEP   96, STRESS PERIOD    2

 DRAWDOWN WILL BE SAVED ON UNIT   52 AT END OF TIME STEP   96, STRESS PERIOD    2
1
  VOLUMETRIC BUDGET FOR ENTIRE MODEL AT END OF TIME STEP   96, STRESS PERIOD   2
  ------------------------------------------------------------------------------

     CUMULATIVE VOLUMES      L**3       RATES FOR THIS TIME STEP      L**3/T
     ------------------                 ------------------------

           IN:                                      IN:
           ---                                      ---
             STORAGE =           0.0000               STORAGE =           0.0000
       CONSTANT HEAD =           0.0000         CONSTANT HEAD =           0.0000
               WELLS =        9600.0000                 WELLS =         100.0000
     HEAD DEP BOUNDS =      112026.7422       HEAD DEP BOUNDS =        1141.8333

            TOTAL IN =      121626.7422              TOTAL IN =        1241.8333

          OUT:                                     OUT:
          ----                                     ----
             STORAGE =        6820.8901               STORAGE =          41.5489
       CONSTANT HEAD =           0.0000         CONSTANT HEAD =           0.0000
               WELLS =           0.0000                 WELLS =           0.0000
     HEAD DEP BOUNDS =      114803.6641       HEAD DEP BOUNDS =        1200.2491

           TOTAL OUT =      121624.5547             TOTAL OUT =        1241.7980

            IN - OUT =           2.1875              IN - OUT =       3.5278E-02

 PERCENT DISCREPANCY =           0.00     PERCENT DISCREPANCY =           0.00






         TIME SUMMARY AT END OF TIME STEP   96 IN STRESS PERIOD    2
                    SECONDS     MINUTES      HOURS       DAYS        YEARS
                    -----------------------------------------------------------
   TIME STEP LENGTH  86400.      1440.0      24.000      1.0000     2.73785E-03
 STRESS PERIOD TIME 8.29440E+06 1.38240E+05  2304.0      96.000     0.26283    
         TOTAL TIME 8.38080E+06 1.39680E+05  2328.0      97.000     0.26557    
1
 
 SOLVING FOR HEAD 

 OUTPUT CONTROL FOR STRESS PERIOD    2   TIME STEP   97
    SAVE HEAD FOR ALL LAYERS
    SAVE DRAWDOWN FOR ALL LAYERS
    SAVE BUDGET
    PRINT HEAD FOR ALL LAYERS
    PRINT BUDGET
 UBDSV1 SAVING "         STORAGE" ON UNIT  53 AT TIME STEP 97, STRESS PERIOD   2
 UBDSV2 SAVING "   CONSTANT HEAD" ON UNIT  53 AT TIME STEP 97, STRESS PERIOD   2
 UBDSV1 SAVING "FLOW RIGHT FACE " ON UNIT  53 AT TIME STEP 97, STRESS PERIOD   2
 UBDSV1 SAVING "FLOW FRONT FACE " ON UNIT  53 AT TIME STEP 97, STRESS PERIOD   2
 UBDSV1 SAVING "FLOW LOWER FACE " ON UNIT  53 AT TIME STEP 97, STRESS PERIOD   2

 SAVING SATURATED THICKNESS AND FLOW TERMS ON UNIT   54 FOR MT3DMS
 BY THE LINK-MT3DMS PACKAGE V7 AT TIME STEP   97, STRESS PERIOD    2

1
              HEAD IN LAYER   1 AT END OF TIME STEP  97 IN STRESS PERIOD    2
  ---------------------------------------------------------------------------

            1           2           3           4           5           6           7           8           9          10
 ........................................................................................................................
   1    9.998       8.947       7.883       6.806       5.715       4.608       3.483       2.340       1.180      1.5393E-03
   2    9.998       8.949       7.887       6.814       5.726       4.620       3.493       2.347       1.184      1.5442E-03
   3    9.998       8.953       7.896       6.829       5.748       4.647       3.516       2.362       1.191      1.5540E-03
   4    9.998       8.959       7.909       6.853       5.787       4.698       3.554       2.385       1.202      1.5680E-03
   5    9.998       8.964       7.922       6.881       5.845       4.806       3.614       2.413       1.213      1.5834E-03
   6    9.998       8.966       7.930       6.901       5.913       5.103       3.684       2.434       1.219      1.5923E-03
   7    9.998       8.965       7.924       6.883       5.847       4.808       3.616       2.415       1.214      1.5846E-03
   8    9.998       8.960       7.912       6.857       5.792       4.704       3.559       2.389       1.204      1.5708E-03
   9    9.998       8.956       7.902       6.837       5.758       4.657       3.525       2.369       1.195      1.5589E-03
  10    9.998       8.953       7.896       6.827       5.742       4.638       3.509       2.359       1.190      1.5526E-03
1
              HEAD IN LAYER   2 AT END OF TIME STEP  97 IN STRESS PERIOD    2
  ---------------------------------------------------------------------------

            1           2           3           4           5           6           7           8           9          10
 ........................................................................................................................
   1    9.998       8.945       7.881       6.805       5.714       4.607       3.482       2.338       1.179      2.5313E-03
   2    9.998       8.947       7.886       6.812       5.725       4.619       3.492       2.346       1.182      2.5391E-03
   3    9.998       8.952       7.895       6.828       5.747       4.646       3.515       2.360       1.189      2.5546E-03
   4    9.998       8.957       7.908       6.852       5.786       4.697       3.553       2.383       1.200      2.5770E-03
   5    9.998       8.962       7.921       6.880       5.844       4.804       3.612       2.412       1.211      2.6012E-03
   6    9.998       8.965       7.929       6.900       5.912       5.142       3.681       2.432       1.218      2.6152E-03
   7    9.998       8.963       7.923       6.882       5.846       4.806       3.614       2.413       1.212      2.6032E-03
   8    9.998       8.959       7.911       6.856       5.791       4.703       3.558       2.387       1.202      2.5814E-03
   9    9.998       8.954       7.901       6.836       5.757       4.656       3.524       2.367       1.193      2.5626E-03
  10    9.998       8.952       7.895       6.826       5.741       4.637       3.508       2.357       1.188      2.5525E-03
1
              HEAD IN LAYER   3 AT END OF TIME STEP  97 IN STRESS PERIOD    2
  ---------------------------------------------------------------------------

            1           2           3           4           5           6           7           8           9          10
 ........................................................................................................................
   1    9.998       8.944       7.880       6.804       5.713       4.606       3.480       2.337       1.177      2.5817E-03
   2    9.998       8.946       7.885       6.811       5.724       4.618       3.491       2.344       1.181      2.5896E-03
   3    9.998       8.951       7.894       6.827       5.747       4.645       3.513       2.359       1.188      2.6055E-03
   4    9.998       8.956       7.907       6.851       5.785       4.696       3.552       2.382       1.198      2.6282E-03
   5    9.998       8.961       7.920       6.879       5.842       4.797       3.610       2.410       1.210      2.6529E-03
   6    9.998       8.964       7.928       6.899       5.906       5.032       3.674       2.430       1.216      2.6671E-03
   7    9.998       8.962       7.922       6.881       5.845       4.800       3.612       2.412       1.211      2.6549E-03
   8    9.998       8.958       7.910       6.855       5.791       4.702       3.557       2.386       1.200      2.6328E-03
   9    9.998       8.953       7.900       6.835       5.757       4.655       3.523       2.366       1.192      2.6137E-03
  10    9.998       8.951       7.894       6.825       5.741       4.636       3.507       2.356       1.187      2.6034E-03
1
              HEAD IN LAYER   4 AT END OF TIME STEP  97 IN STRESS PERIOD    2
  ---------------------------------------------------------------------------

            1           2           3           4           5           6           7           8           9          10
 ........................................................................................................................
   1    9.998       8.943       7.879       6.803       5.713       4.605       3.480       2.336       1.176      2.5818E-03
   2    9.998       8.946       7.884       6.811       5.723       4.617       3.490       2.343       1.180      2.5897E-03
   3    9.998       8.950       7.893       6.827       5.746       4.644       3.513       2.358       1.187      2.6056E-03
   4    9.998       8.955       7.906       6.850       5.784       4.695       3.551       2.381       1.197      2.6284E-03
   5    9.998       8.961       7.920       6.879       5.841       4.791       3.608       2.409       1.209      2.6530E-03
   6    9.998       8.963       7.927       6.898       5.900       4.967       3.668       2.429       1.215      2.6672E-03
   7    9.998       8.962       7.921       6.881       5.844       4.794       3.611       2.411       1.210      2.6551E-03
   8    9.998       8.957       7.909       6.855       5.790       4.701       3.556       2.385       1.199      2.6330E-03
   9    9.998       8.953       7.899       6.835       5.756       4.655       3.522       2.365       1.191      2.6139E-03
  10    9.998       8.950       7.893       6.824       5.740       4.635       3.506       2.355       1.186      2.6036E-03
1
              HEAD IN LAYER   5 AT END OF TIME STEP  97 IN STRESS PERIOD    2
  ---------------------------------------------------------------------------

            1           2           3           4           5           6           7           8           9          10
 ........................................................................................................................
   1    9.998       8.943       7.879       6.803       5.712       4.605       3.479       2.336       1.176      2.5809E-03
   2    9.998       8.945       7.884       6.810       5.723       4.617       3.490       2.343       1.179      2.5888E-03
   3    9.998       8.950       7.893       6.826       5.746       4.644       3.512       2.358       1.187      2.6047E-03
   4    9.998       8.955       7.906       6.850       5.784       4.694       3.551       2.381       1.197      2.6274E-03
   5    9.998       8.960       7.919       6.878       5.840       4.788       3.607       2.409       1.208      2.6521E-03
   6    9.998       8.963       7.927       6.898       5.897       4.938       3.664       2.428       1.215      2.6662E-03
   7    9.998       8.961       7.921       6.880       5.843       4.790       3.610       2.410       1.209      2.6541E-03
   8    9.998       8.957       7.909       6.855       5.790       4.700       3.556       2.385       1.199      2.6321E-03
   9    9.998       8.952       7.899       6.835       5.756       4.655       3.522       2.365       1.190      2.6130E-03
  10    9.998       8.950       7.893       6.824       5.740       4.635       3.506       2.355       1.186      2.6027E-03

 HEAD WILL BE SAVED ON UNIT   51 AT END OF TIME STEP   97, STRESS PERIOD    2

 DRAWDOWN WILL BE SAVED ON UNIT   52 AT END OF TIME STEP   97, STRESS PERIOD    2
1
  VOLUMETRIC BUDGET FOR ENTIRE MODEL AT END OF TIME STEP   97, STRESS PERIOD   2
  ------------------------------------------------------------------------------

     CUMULATIVE VOLUMES      L**3       RATES FOR THIS TIME STEP      L**3/T
     ------------------                 ------------------------

           IN:                                      IN:
           ---                                      ---
             STORAGE =           0.0000               STORAGE =           0.0000
       CONSTANT HEAD =           0.0000         CONSTANT HEAD =           0.0000
               WELLS =        9700.0000                 WELLS =         100.0000
     HEAD DEP BOUNDS =      113168.3594       HEAD DEP BOUNDS =        1141.6155

            TOTAL IN =      122868.3594              TOTAL IN =        1241.6155

          OUT:                                     OUT:
          ----                                     ----
             STORAGE =        6861.9702               STORAGE =          41.0803
       CONSTANT HEAD =           0.0000         CONSTANT HEAD =           0.0000
               WELLS =           0.0000                 WELLS =           0.0000
     HEAD DEP BOUNDS =      116004.1562       HEAD DEP BOUNDS =        1200.4919

           TOTAL OUT =      122866.1250             TOTAL OUT =        1241.5723

            IN - OUT =           2.2344              IN - OUT =       4.3213E-02

 PERCENT DISCREPANCY =           0.00     PERCENT DISCREPANCY =           0.00






         TIME SUMMARY AT END OF TIME STEP   97 IN STRESS PERIOD    2
                    SECONDS     MINUTES      HOURS       DAYS        YEARS
                    -----------------------------------------------------------
   TIME STEP LENGTH  86400.      1440.0      24.000      1.0000     2.73785E-03
 STRESS PERIOD TIME 8.38080E+06 1.39680E+05  2328.0      97.000     0.26557    
         TOTAL TIME 8.46720E+06 1.41120E+05  2352.0      98.000     0.26831    
1
 
 SOLVING FOR HEAD 

 OUTPUT CONTROL FOR STRESS PERIOD    2   TIME STEP   98
    SAVE HEAD FOR ALL LAYERS
    SAVE DRAWDOWN FOR ALL LAYERS
    SAVE BUDGET
    PRINT HEAD FOR ALL LAYERS
    PRINT BUDGET
 UBDSV1 SAVING "         STORAGE" ON UNIT  53 AT TIME STEP 98, STRESS PERIOD   2
 UBDSV2 SAVING "   CONSTANT HEAD" ON UNIT  53 AT TIME STEP 98, STRESS PERIOD   2
 UBDSV1 SAVING "FLOW RIGHT FACE " ON UNIT  53 AT TIME STEP 98, STRESS PERIOD   2
 UBDSV1 SAVING "FLOW FRONT FACE " ON UNIT  53 AT TIME STEP 98, STRESS PERIOD   2
 UBDSV1 SAVING "FLOW LOWER FACE " ON UNIT  53 AT TIME STEP 98, STRESS PERIOD   2

 SAVING SATURATED THICKNESS AND FLOW TERMS ON UNIT   54 FOR MT3DMS
 BY THE LINK-MT3DMS PACKAGE V7 AT TIME STEP   98, STRESS PERIOD    2

1
              HEAD IN LAYER   1 AT END OF TIME STEP  98 IN STRESS PERIOD    2
  ---------------------------------------------------------------------------

            1           2           3           4           5           6           7           8           9          10
 ........................................................................................................................
   1    9.998       8.947       7.883       6.806       5.716       4.609       3.483       2.340       1.181      1.5395E-03
   2    9.998       8.949       7.888       6.814       5.726       4.621       3.494       2.347       1.184      1.5444E-03
   3    9.998       8.953       7.897       6.830       5.749       4.648       3.516       2.362       1.191      1.5542E-03
   4    9.998       8.959       7.909       6.853       5.787       4.699       3.555       2.385       1.202      1.5683E-03
   5    9.998       8.964       7.923       6.881       5.846       4.807       3.614       2.414       1.213      1.5837E-03
   6    9.998       8.967       7.930       6.902       5.914       5.104       3.685       2.434       1.220      1.5927E-03
   7    9.998       8.965       7.924       6.883       5.848       4.809       3.616       2.415       1.214      1.5850E-03
   8    9.998       8.960       7.913       6.858       5.793       4.705       3.560       2.389       1.204      1.5711E-03
   9    9.998       8.956       7.902       6.838       5.759       4.658       3.526       2.369       1.195      1.5593E-03
  10    9.998       8.954       7.897       6.827       5.743       4.638       3.510       2.359       1.190      1.5529E-03
1
              HEAD IN LAYER   2 AT END OF TIME STEP  98 IN STRESS PERIOD    2
  ---------------------------------------------------------------------------

            1           2           3           4           5           6           7           8           9          10
 ........................................................................................................................
   1    9.998       8.945       7.881       6.805       5.715       4.608       3.482       2.339       1.179      2.5318E-03
   2    9.998       8.948       7.886       6.813       5.725       4.619       3.492       2.346       1.182      2.5395E-03
   3    9.998       8.952       7.895       6.829       5.748       4.646       3.515       2.361       1.190      2.5551E-03
   4    9.998       8.957       7.908       6.852       5.786       4.698       3.554       2.384       1.200      2.5775E-03
   5    9.998       8.963       7.922       6.881       5.844       4.804       3.613       2.412       1.211      2.6018E-03
   6    9.998       8.965       7.929       6.901       5.912       5.143       3.682       2.433       1.218      2.6158E-03
   7    9.998       8.963       7.923       6.883       5.847       4.807       3.615       2.414       1.212      2.6038E-03
   8    9.998       8.959       7.911       6.857       5.792       4.704       3.559       2.388       1.202      2.5819E-03
   9    9.998       8.955       7.901       6.837       5.758       4.657       3.525       2.368       1.193      2.5632E-03
  10    9.998       8.952       7.895       6.826       5.742       4.637       3.509       2.358       1.189      2.5530E-03
1
              HEAD IN LAYER   3 AT END OF TIME STEP  98 IN STRESS PERIOD    2
  ---------------------------------------------------------------------------

            1           2           3           4           5           6           7           8           9          10
 ........................................................................................................................
   1    9.998       8.944       7.880       6.804       5.714       4.607       3.481       2.337       1.177      2.5821E-03
   2    9.998       8.947       7.885       6.812       5.724       4.618       3.491       2.345       1.181      2.5900E-03
   3    9.998       8.951       7.894       6.828       5.747       4.645       3.514       2.360       1.188      2.6059E-03
   4    9.998       8.956       7.907       6.851       5.786       4.697       3.553       2.383       1.199      2.6287E-03
   5    9.998       8.962       7.921       6.880       5.843       4.798       3.611       2.411       1.210      2.6535E-03
   6    9.998       8.964       7.928       6.900       5.906       5.032       3.675       2.431       1.216      2.6677E-03
   7    9.998       8.962       7.922       6.882       5.845       4.800       3.613       2.412       1.211      2.6555E-03
   8    9.998       8.958       7.911       6.856       5.791       4.702       3.558       2.386       1.201      2.6334E-03
   9    9.998       8.954       7.900       6.836       5.757       4.656       3.524       2.367       1.192      2.6143E-03
  10    9.998       8.951       7.894       6.826       5.741       4.637       3.508       2.357       1.187      2.6039E-03
1
              HEAD IN LAYER   4 AT END OF TIME STEP  98 IN STRESS PERIOD    2
  ---------------------------------------------------------------------------

            1           2           3           4           5           6           7           8           9          10
 ........................................................................................................................
   1    9.998       8.944       7.880       6.804       5.713       4.606       3.480       2.336       1.176      2.5822E-03
   2    9.998       8.946       7.884       6.811       5.724       4.618       3.491       2.344       1.180      2.5902E-03
   3    9.998       8.950       7.894       6.827       5.747       4.645       3.513       2.359       1.187      2.6061E-03
   4    9.998       8.956       7.907       6.851       5.785       4.696       3.552       2.382       1.198      2.6289E-03
   5    9.998       8.961       7.920       6.879       5.842       4.792       3.609       2.410       1.209      2.6536E-03
   6    9.998       8.964       7.927       6.899       5.901       4.968       3.669       2.429       1.215      2.6677E-03
   7    9.998       8.962       7.921       6.881       5.844       4.794       3.611       2.411       1.210      2.6557E-03
   8    9.998       8.957       7.910       6.855       5.791       4.701       3.557       2.386       1.200      2.6335E-03
   9    9.998       8.953       7.900       6.835       5.757       4.656       3.523       2.366       1.191      2.6145E-03
  10    9.998       8.951       7.894       6.825       5.741       4.636       3.507       2.356       1.186      2.6041E-03
1
              HEAD IN LAYER   5 AT END OF TIME STEP  98 IN STRESS PERIOD    2
  ---------------------------------------------------------------------------

            1           2           3           4           5           6           7           8           9          10
 ........................................................................................................................
   1    9.998       8.943       7.879       6.803       5.713       4.606       3.480       2.336       1.176      2.5813E-03
   2    9.998       8.945       7.884       6.811       5.723       4.617       3.490       2.343       1.179      2.5892E-03
   3    9.998       8.950       7.893       6.827       5.746       4.644       3.513       2.358       1.187      2.6051E-03
   4    9.998       8.955       7.906       6.850       5.785       4.695       3.551       2.381       1.197      2.6279E-03
   5    9.998       8.961       7.920       6.879       5.841       4.788       3.608       2.409       1.208      2.6526E-03
   6    9.998       8.963       7.927       6.898       5.897       4.938       3.665       2.429       1.215      2.6667E-03
   7    9.998       8.961       7.921       6.881       5.843       4.791       3.610       2.411       1.209      2.6547E-03
   8    9.998       8.957       7.910       6.855       5.790       4.701       3.557       2.385       1.199      2.6326E-03
   9    9.998       8.953       7.899       6.835       5.756       4.655       3.523       2.365       1.191      2.6136E-03
  10    9.998       8.950       7.893       6.825       5.740       4.636       3.507       2.355       1.186      2.6032E-03

 HEAD WILL BE SAVED ON UNIT   51 AT END OF TIME STEP   98, STRESS PERIOD    2

 DRAWDOWN WILL BE SAVED ON UNIT   52 AT END OF TIME STEP   98, STRESS PERIOD    2
1
  VOLUMETRIC BUDGET FOR ENTIRE MODEL AT END OF TIME STEP   98, STRESS PERIOD   2
  ------------------------------------------------------------------------------

     CUMULATIVE VOLUMES      L**3       RATES FOR THIS TIME STEP      L**3/T
     ------------------                 ------------------------

           IN:                                      IN:
           ---                                      ---
             STORAGE =           0.0000               STORAGE =           0.0000
       CONSTANT HEAD =           0.0000         CONSTANT HEAD =           0.0000
               WELLS =        9800.0000                 WELLS =         100.0000
     HEAD DEP BOUNDS =      114309.7578       HEAD DEP BOUNDS =        1141.4000

            TOTAL IN =      124109.7578              TOTAL IN =        1241.4000

          OUT:                                     OUT:
          ----                                     ----
             STORAGE =        6902.5918               STORAGE =          40.6217
       CONSTANT HEAD =           0.0000         CONSTANT HEAD =           0.0000
               WELLS =           0.0000                 WELLS =           0.0000
     HEAD DEP BOUNDS =      117204.8906       HEAD DEP BOUNDS =        1200.7310

           TOTAL OUT =      124107.4844             TOTAL OUT =        1241.3527

            IN - OUT =           2.2734              IN - OUT =       4.7363E-02

 PERCENT DISCREPANCY =           0.00     PERCENT DISCREPANCY =           0.00






         TIME SUMMARY AT END OF TIME STEP   98 IN STRESS PERIOD    2
                    SECONDS     MINUTES      HOURS       DAYS        YEARS
                    -----------------------------------------------------------
   TIME STEP LENGTH  86400.      1440.0      24.000      1.0000     2.73785E-03
 STRESS PERIOD TIME 8.46720E+06 1.41120E+05  2352.0      98.000     0.26831    
         TOTAL TIME 8.55360E+06 1.42560E+05  2376.0      99.000     0.27105    
1
 
 SOLVING FOR HEAD 

 OUTPUT CONTROL FOR STRESS PERIOD    2   TIME STEP   99
    SAVE HEAD FOR ALL LAYERS
    SAVE DRAWDOWN FOR ALL LAYERS
    SAVE BUDGET
    PRINT HEAD FOR ALL LAYERS
    PRINT BUDGET
 UBDSV1 SAVING "         STORAGE" ON UNIT  53 AT TIME STEP 99, STRESS PERIOD   2
 UBDSV2 SAVING "   CONSTANT HEAD" ON UNIT  53 AT TIME STEP 99, STRESS PERIOD   2
 UBDSV1 SAVING "FLOW RIGHT FACE " ON UNIT  53 AT TIME STEP 99, STRESS PERIOD   2
 UBDSV1 SAVING "FLOW FRONT FACE " ON UNIT  53 AT TIME STEP 99, STRESS PERIOD   2
 UBDSV1 SAVING "FLOW LOWER FACE " ON UNIT  53 AT TIME STEP 99, STRESS PERIOD   2

 SAVING SATURATED THICKNESS AND FLOW TERMS ON UNIT   54 FOR MT3DMS
 BY THE LINK-MT3DMS PACKAGE V7 AT TIME STEP   99, STRESS PERIOD    2

1
              HEAD IN LAYER   1 AT END OF TIME STEP  99 IN STRESS PERIOD    2
  ---------------------------------------------------------------------------

            1           2           3           4           5           6           7           8           9          10
 ........................................................................................................................
   1    9.998       8.947       7.883       6.807       5.716       4.609       3.484       2.341       1.181      1.5398E-03
   2    9.998       8.949       7.888       6.815       5.727       4.621       3.494       2.348       1.184      1.5447E-03
   3    9.998       8.954       7.897       6.830       5.750       4.648       3.517       2.363       1.192      1.5546E-03
   4    9.998       8.959       7.910       6.854       5.788       4.700       3.556       2.386       1.202      1.5686E-03
   5    9.998       8.964       7.923       6.882       5.846       4.807       3.615       2.414       1.213      1.5841E-03
   6    9.998       8.967       7.930       6.902       5.915       5.105       3.686       2.435       1.220      1.5930E-03
   7    9.998       8.965       7.925       6.884       5.849       4.810       3.617       2.416       1.214      1.5853E-03
   8    9.998       8.961       7.913       6.858       5.793       4.705       3.561       2.390       1.204      1.5714E-03
   9    9.998       8.956       7.903       6.838       5.759       4.659       3.526       2.370       1.195      1.5597E-03
  10    9.998       8.954       7.897       6.828       5.744       4.639       3.510       2.360       1.191      1.5532E-03
1
              HEAD IN LAYER   2 AT END OF TIME STEP  99 IN STRESS PERIOD    2
  ---------------------------------------------------------------------------

            1           2           3           4           5           6           7           8           9          10
 ........................................................................................................................
   1    9.998       8.946       7.882       6.806       5.715       4.608       3.483       2.339       1.179      2.5322E-03
   2    9.998       8.948       7.887       6.813       5.726       4.620       3.493       2.346       1.183      2.5399E-03
   3    9.998       8.952       7.896       6.829       5.749       4.647       3.516       2.361       1.190      2.5556E-03
   4    9.998       8.958       7.909       6.853       5.787       4.699       3.554       2.384       1.200      2.5780E-03
   5    9.998       8.963       7.922       6.881       5.845       4.805       3.613       2.413       1.212      2.6023E-03
   6    9.998       8.965       7.929       6.901       5.913       5.143       3.683       2.433       1.218      2.6164E-03
   7    9.998       8.964       7.923       6.883       5.848       4.808       3.615       2.414       1.213      2.6043E-03
   8    9.998       8.959       7.912       6.857       5.793       4.704       3.560       2.388       1.202      2.5825E-03
   9    9.998       8.955       7.902       6.837       5.759       4.658       3.525       2.368       1.194      2.5637E-03
  10    9.998       8.952       7.896       6.827       5.743       4.638       3.509       2.358       1.189      2.5536E-03
1
              HEAD IN LAYER   3 AT END OF TIME STEP  99 IN STRESS PERIOD    2
  ---------------------------------------------------------------------------

            1           2           3           4           5           6           7           8           9          10
 ........................................................................................................................
   1    9.998       8.945       7.881       6.805       5.714       4.607       3.481       2.338       1.177      2.5825E-03
   2    9.998       8.947       7.885       6.812       5.725       4.619       3.492       2.345       1.181      2.5905E-03
   3    9.998       8.951       7.895       6.828       5.748       4.646       3.515       2.360       1.188      2.6064E-03
   4    9.998       8.956       7.908       6.852       5.786       4.697       3.553       2.383       1.199      2.6292E-03
   5    9.998       8.962       7.921       6.880       5.844       4.799       3.611       2.411       1.210      2.6540E-03
   6    9.998       8.964       7.928       6.900       5.907       5.033       3.676       2.431       1.217      2.6682E-03
   7    9.998       8.963       7.923       6.882       5.846       4.801       3.614       2.413       1.211      2.6561E-03
   8    9.998       8.958       7.911       6.857       5.792       4.703       3.558       2.387       1.201      2.6339E-03
   9    9.998       8.954       7.901       6.836       5.758       4.657       3.524       2.367       1.192      2.6148E-03
  10    9.998       8.951       7.895       6.826       5.742       4.637       3.508       2.357       1.187      2.6045E-03
1
              HEAD IN LAYER   4 AT END OF TIME STEP  99 IN STRESS PERIOD    2
  ---------------------------------------------------------------------------

            1           2           3           4           5           6           7           8           9          10
 ........................................................................................................................
   1    9.998       8.944       7.880       6.804       5.714       4.606       3.481       2.337       1.177      2.5826E-03
   2    9.998       8.946       7.885       6.812       5.724       4.618       3.491       2.344       1.180      2.5906E-03
   3    9.998       8.950       7.894       6.827       5.747       4.645       3.514       2.359       1.187      2.6065E-03
   4    9.998       8.956       7.907       6.851       5.786       4.696       3.552       2.382       1.198      2.6294E-03
   5    9.998       8.961       7.920       6.880       5.842       4.792       3.610       2.410       1.209      2.6541E-03
   6    9.998       8.964       7.928       6.899       5.901       4.969       3.669       2.430       1.216      2.6683E-03
   7    9.998       8.962       7.922       6.882       5.845       4.795       3.612       2.412       1.210      2.6562E-03
   8    9.998       8.958       7.910       6.856       5.791       4.702       3.558       2.386       1.200      2.6341E-03
   9    9.998       8.953       7.900       6.836       5.757       4.656       3.524       2.366       1.191      2.6150E-03
  10    9.998       8.951       7.894       6.826       5.741       4.637       3.508       2.356       1.187      2.6047E-03
1
              HEAD IN LAYER   5 AT END OF TIME STEP  99 IN STRESS PERIOD    2
  ---------------------------------------------------------------------------

            1           2           3           4           5           6           7           8           9          10
 ........................................................................................................................
   1    9.998       8.943       7.880       6.804       5.713       4.606       3.480       2.336       1.176      2.5817E-03
   2    9.998       8.946       7.884       6.811       5.724       4.618       3.491       2.344       1.180      2.5896E-03
   3    9.998       8.950       7.894       6.827       5.747       4.645       3.513       2.359       1.187      2.6056E-03
   4    9.998       8.955       7.907       6.851       5.785       4.696       3.552       2.382       1.197      2.6284E-03
   5    9.998       8.961       7.920       6.879       5.842       4.789       3.609       2.410       1.209      2.6531E-03
   6    9.998       8.964       7.928       6.899       5.898       4.939       3.666       2.429       1.215      2.6673E-03
   7    9.998       8.962       7.922       6.882       5.844       4.792       3.611       2.411       1.210      2.6552E-03
   8    9.998       8.957       7.910       6.856       5.791       4.702       3.557       2.386       1.200      2.6332E-03
   9    9.998       8.953       7.900       6.836       5.757       4.656       3.523       2.366       1.191      2.6141E-03
  10    9.998       8.950       7.894       6.825       5.741       4.636       3.507       2.356       1.186      2.6038E-03

 HEAD WILL BE SAVED ON UNIT   51 AT END OF TIME STEP   99, STRESS PERIOD    2

 DRAWDOWN WILL BE SAVED ON UNIT   52 AT END OF TIME STEP   99, STRESS PERIOD    2
1
  VOLUMETRIC BUDGET FOR ENTIRE MODEL AT END OF TIME STEP   99, STRESS PERIOD   2
  ------------------------------------------------------------------------------

     CUMULATIVE VOLUMES      L**3       RATES FOR THIS TIME STEP      L**3/T
     ------------------                 ------------------------

           IN:                                      IN:
           ---                                      ---
             STORAGE =           0.0000               STORAGE =           0.0000
       CONSTANT HEAD =           0.0000         CONSTANT HEAD =           0.0000
               WELLS =        9900.0000                 WELLS =         100.0000
     HEAD DEP BOUNDS =      115450.9297       HEAD DEP BOUNDS =        1141.1724

            TOTAL IN =      125350.9297              TOTAL IN =        1241.1724

          OUT:                                     OUT:
          ----                                     ----
             STORAGE =        6942.7661               STORAGE =          40.1742
       CONSTANT HEAD =           0.0000         CONSTANT HEAD =           0.0000
               WELLS =           0.0000                 WELLS =           0.0000
     HEAD DEP BOUNDS =      118405.8594       HEAD DEP BOUNDS =        1200.9663

           TOTAL OUT =      125348.6250             TOTAL OUT =        1241.1405

            IN - OUT =           2.3047              IN - OUT =       3.1860E-02

 PERCENT DISCREPANCY =           0.00     PERCENT DISCREPANCY =           0.00






         TIME SUMMARY AT END OF TIME STEP   99 IN STRESS PERIOD    2
                    SECONDS     MINUTES      HOURS       DAYS        YEARS
                    -----------------------------------------------------------
   TIME STEP LENGTH  86400.      1440.0      24.000      1.0000     2.73785E-03
 STRESS PERIOD TIME 8.55360E+06 1.42560E+05  2376.0      99.000     0.27105    
         TOTAL TIME 8.64000E+06 1.44000E+05  2400.0      100.00     0.27379    
1
 
 SOLVING FOR HEAD 

 OUTPUT CONTROL FOR STRESS PERIOD    2   TIME STEP  100
    SAVE HEAD FOR ALL LAYERS
    SAVE DRAWDOWN FOR ALL LAYERS
    SAVE BUDGET
    PRINT HEAD FOR ALL LAYERS
    PRINT BUDGET
 UBDSV1 SAVING "         STORAGE" ON UNIT  53 AT TIME STEP100, STRESS PERIOD   2
 UBDSV2 SAVING "   CONSTANT HEAD" ON UNIT  53 AT TIME STEP100, STRESS PERIOD   2
 UBDSV1 SAVING "FLOW RIGHT FACE " ON UNIT  53 AT TIME STEP100, STRESS PERIOD   2
 UBDSV1 SAVING "FLOW FRONT FACE " ON UNIT  53 AT TIME STEP100, STRESS PERIOD   2
 UBDSV1 SAVING "FLOW LOWER FACE " ON UNIT  53 AT TIME STEP100, STRESS PERIOD   2

 SAVING SATURATED THICKNESS AND FLOW TERMS ON UNIT   54 FOR MT3DMS
 BY THE LINK-MT3DMS PACKAGE V7 AT TIME STEP  100, STRESS PERIOD    2

1
              HEAD IN LAYER   1 AT END OF TIME STEP 100 IN STRESS PERIOD    2
  ---------------------------------------------------------------------------

            1           2           3           4           5           6           7           8           9          10
 ........................................................................................................................
   1    9.998       8.947       7.884       6.807       5.717       4.610       3.484       2.341       1.181      1.5401E-03
   2    9.998       8.950       7.888       6.815       5.727       4.622       3.495       2.348       1.185      1.5450E-03
   3    9.998       8.954       7.897       6.831       5.750       4.649       3.517       2.363       1.192      1.5549E-03
   4    9.998       8.959       7.910       6.854       5.789       4.700       3.556       2.386       1.202      1.5690E-03
   5    9.998       8.964       7.924       6.883       5.847       4.808       3.615       2.415       1.214      1.5844E-03
   6    9.998       8.967       7.931       6.903       5.915       5.105       3.686       2.435       1.220      1.5934E-03
   7    9.998       8.965       7.925       6.885       5.849       4.811       3.618       2.416       1.215      1.5857E-03
   8    9.998       8.961       7.913       6.859       5.794       4.706       3.561       2.390       1.204      1.5719E-03
   9    9.998       8.957       7.903       6.839       5.760       4.659       3.527       2.370       1.196      1.5600E-03
  10    9.998       8.954       7.897       6.828       5.744       4.640       3.511       2.360       1.191      1.5536E-03
1
              HEAD IN LAYER   2 AT END OF TIME STEP 100 IN STRESS PERIOD    2
  ---------------------------------------------------------------------------

            1           2           3           4           5           6           7           8           9          10
 ........................................................................................................................
   1    9.998       8.946       7.882       6.806       5.716       4.609       3.483       2.339       1.179      2.5326E-03
   2    9.998       8.948       7.887       6.814       5.726       4.621       3.493       2.347       1.183      2.5404E-03
   3    9.998       8.952       7.896       6.830       5.749       4.648       3.516       2.362       1.190      2.5560E-03
   4    9.998       8.958       7.909       6.853       5.788       4.699       3.555       2.385       1.201      2.5785E-03
   5    9.998       8.963       7.922       6.882       5.846       4.806       3.614       2.413       1.212      2.6029E-03
   6    9.998       8.966       7.930       6.902       5.914       5.144       3.683       2.434       1.218      2.6169E-03
   7    9.998       8.964       7.924       6.884       5.848       4.808       3.616       2.415       1.213      2.6049E-03
   8    9.998       8.959       7.912       6.858       5.793       4.705       3.560       2.389       1.203      2.5831E-03
   9    9.998       8.955       7.902       6.838       5.759       4.658       3.526       2.369       1.194      2.5643E-03
  10    9.998       8.953       7.896       6.827       5.743       4.639       3.510       2.359       1.189      2.5541E-03
1
              HEAD IN LAYER   3 AT END OF TIME STEP 100 IN STRESS PERIOD    2
  ---------------------------------------------------------------------------

            1           2           3           4           5           6           7           8           9          10
 ........................................................................................................................
   1    9.998       8.945       7.881       6.805       5.715       4.608       3.482       2.338       1.178      2.5829E-03
   2    9.998       8.947       7.886       6.813       5.725       4.620       3.492       2.345       1.181      2.5909E-03
   3    9.998       8.951       7.895       6.829       5.748       4.647       3.515       2.360       1.189      2.6069E-03
   4    9.998       8.957       7.908       6.852       5.787       4.698       3.554       2.383       1.199      2.6297E-03
   5    9.998       8.962       7.921       6.881       5.844       4.799       3.612       2.412       1.210      2.6545E-03
   6    9.998       8.965       7.929       6.901       5.908       5.034       3.676       2.432       1.217      2.6688E-03
   7    9.998       8.963       7.923       6.883       5.847       4.802       3.614       2.413       1.211      2.6566E-03
   8    9.998       8.958       7.911       6.857       5.793       4.704       3.559       2.387       1.201      2.6345E-03
   9    9.998       8.954       7.901       6.837       5.758       4.657       3.525       2.368       1.192      2.6154E-03
  10    9.998       8.952       7.895       6.827       5.743       4.638       3.509       2.357       1.188      2.6050E-03
1
              HEAD IN LAYER   4 AT END OF TIME STEP 100 IN STRESS PERIOD    2
  ---------------------------------------------------------------------------

            1           2           3           4           5           6           7           8           9          10
 ........................................................................................................................
   1    9.998       8.944       7.880       6.804       5.714       4.607       3.481       2.337       1.177      2.5830E-03
   2    9.998       8.946       7.885       6.812       5.725       4.619       3.492       2.344       1.180      2.5910E-03
   3    9.998       8.950       7.894       6.828       5.748       4.646       3.514       2.359       1.188      2.6070E-03
   4    9.998       8.956       7.907       6.852       5.786       4.697       3.553       2.382       1.198      2.6299E-03
   5    9.998       8.961       7.921       6.880       5.843       4.793       3.610       2.411       1.209      2.6546E-03
   6    9.998       8.964       7.928       6.900       5.902       4.969       3.670       2.430       1.216      2.6688E-03
   7    9.998       8.962       7.922       6.882       5.846       4.796       3.613       2.412       1.210      2.6568E-03
   8    9.998       8.958       7.911       6.857       5.792       4.703       3.558       2.387       1.200      2.6346E-03
   9    9.998       8.953       7.900       6.836       5.758       4.657       3.524       2.367       1.192      2.6156E-03
  10    9.998       8.951       7.895       6.826       5.742       4.637       3.508       2.357       1.187      2.6052E-03
1
              HEAD IN LAYER   5 AT END OF TIME STEP 100 IN STRESS PERIOD    2
  ---------------------------------------------------------------------------

            1           2           3           4           5           6           7           8           9          10
 ........................................................................................................................
   1    9.998       8.944       7.880       6.804       5.714       4.607       3.481       2.337       1.176      2.5821E-03
   2    9.998       8.946       7.885       6.812       5.724       4.619       3.491       2.344       1.180      2.5901E-03
   3    9.998       8.950       7.894       6.828       5.747       4.646       3.514       2.359       1.187      2.6060E-03
   4    9.998       8.956       7.907       6.851       5.786       4.696       3.552       2.382       1.198      2.6289E-03
   5    9.998       8.961       7.920       6.880       5.842       4.790       3.609       2.410       1.209      2.6537E-03
   6    9.998       8.964       7.928       6.900       5.899       4.940       3.666       2.430       1.215      2.6678E-03
   7    9.998       8.962       7.922       6.882       5.845       4.792       3.612       2.412       1.210      2.6558E-03
   8    9.998       8.957       7.910       6.856       5.792       4.702       3.558       2.386       1.200      2.6337E-03
   9    9.998       8.953       7.900       6.836       5.758       4.657       3.524       2.366       1.191      2.6147E-03
  10    9.998       8.951       7.894       6.826       5.742       4.637       3.508       2.356       1.186      2.6043E-03

 HEAD WILL BE SAVED ON UNIT   51 AT END OF TIME STEP  100, STRESS PERIOD    2

 DRAWDOWN WILL BE SAVED ON UNIT   52 AT END OF TIME STEP  100, STRESS PERIOD    2
1
  VOLUMETRIC BUDGET FOR ENTIRE MODEL AT END OF TIME STEP  100, STRESS PERIOD   2
  ------------------------------------------------------------------------------

     CUMULATIVE VOLUMES      L**3       RATES FOR THIS TIME STEP      L**3/T
     ------------------                 ------------------------

           IN:                                      IN:
           ---                                      ---
             STORAGE =           0.0000               STORAGE =           0.0000
       CONSTANT HEAD =           0.0000         CONSTANT HEAD =           0.0000
               WELLS =       10000.0000                 WELLS =         100.0000
     HEAD DEP BOUNDS =      116591.8828       HEAD DEP BOUNDS =        1140.9540

            TOTAL IN =      126591.8828              TOTAL IN =        1240.9540

          OUT:                                     OUT:
          ----                                     ----
             STORAGE =        6982.4834               STORAGE =          39.7173
       CONSTANT HEAD =           0.0000         CONSTANT HEAD =           0.0000
               WELLS =           0.0000                 WELLS =           0.0000
     HEAD DEP BOUNDS =      119607.0625       HEAD DEP BOUNDS =        1201.2017

           TOTAL OUT =      126589.5469             TOTAL OUT =        1240.9189

            IN - OUT =           2.3359              IN - OUT =       3.5034E-02

 PERCENT DISCREPANCY =           0.00     PERCENT DISCREPANCY =           0.00






         TIME SUMMARY AT END OF TIME STEP  100 IN STRESS PERIOD    2
                    SECONDS     MINUTES      HOURS       DAYS        YEARS
                    -----------------------------------------------------------
   TIME STEP LENGTH  86400.      1440.0      24.000      1.0000     2.73785E-03
 STRESS PERIOD TIME 8.64000E+06 1.44000E+05  2400.0      100.00     0.27379    
         TOTAL TIME 8.72640E+06 1.45440E+05  2424.0      101.00     0.27652    
1
1
                            STRESS PERIOD NO.    3, LENGTH =   100.0000    
                            -----------------------------------------------

                              NUMBER OF TIME STEPS =   100

                               MULTIPLIER FOR DELT =     1.000

                            INITIAL TIME STEP SIZE =   1.000000    

 WELL NO.  LAYER   ROW   COL   STRESS RATE         
 --------------------------------------------------
      1      2      6      6       60.00    

      1 WELL 

 REUSING NON-PARAMETER GHB CELLS FROM LAST STRESS PERIOD

    100 GHB CELLS
 
 SOLVING FOR HEAD 

 OUTPUT CONTROL FOR STRESS PERIOD    3   TIME STEP    1
    SAVE HEAD FOR ALL LAYERS
    SAVE DRAWDOWN FOR ALL LAYERS
    SAVE BUDGET
    PRINT HEAD FOR ALL LAYERS
    PRINT BUDGET
 UBDSV1 SAVING "         STORAGE" ON UNIT  53 AT TIME STEP  1, STRESS PERIOD   3
 UBDSV2 SAVING "   CONSTANT HEAD" ON UNIT  53 AT TIME STEP  1, STRESS PERIOD   3
 UBDSV1 SAVING "FLOW RIGHT FACE " ON UNIT  53 AT TIME STEP  1, STRESS PERIOD   3
 UBDSV1 SAVING "FLOW FRONT FACE " ON UNIT  53 AT TIME STEP  1, STRESS PERIOD   3
 UBDSV1 SAVING "FLOW LOWER FACE " ON UNIT  53 AT TIME STEP  1, STRESS PERIOD   3

 SAVING SATURATED THICKNESS AND FLOW TERMS ON UNIT   54 FOR MT3DMS
 BY THE LINK-MT3DMS PACKAGE V7 AT TIME STEP    1, STRESS PERIOD    3

1
              HEAD IN LAYER   1 AT END OF TIME STEP   1 IN STRESS PERIOD    3
  ---------------------------------------------------------------------------

            1           2           3           4           5           6           7           8           9          10
 ........................................................................................................................
   1    9.998       8.948       7.884       6.808       5.717       4.610       3.485       2.341       1.181      1.5403E-03
   2    9.998       8.950       7.889       6.815       5.728       4.622       3.495       2.349       1.185      1.5452E-03
   3    9.998       8.954       7.898       6.831       5.751       4.649       3.518       2.364       1.192      1.5551E-03
   4    9.998       8.959       7.911       6.855       5.789       4.701       3.557       2.387       1.202      1.5693E-03
   5    9.998       8.965       7.924       6.883       5.847       4.807       3.616       2.415       1.214      1.5847E-03
   6    9.998       8.967       7.931       6.903       5.914       5.084       3.685       2.436       1.220      1.5937E-03
   7    9.998       8.965       7.925       6.885       5.850       4.809       3.618       2.417       1.215      1.5861E-03
   8    9.998       8.961       7.914       6.859       5.795       4.707       3.562       2.391       1.205      1.5722E-03
   9    9.998       8.957       7.904       6.839       5.761       4.660       3.528       2.371       1.196      1.5604E-03
  10    9.998       8.954       7.898       6.829       5.745       4.640       3.511       2.361       1.191      1.5539E-03
1
              HEAD IN LAYER   2 AT END OF TIME STEP   1 IN STRESS PERIOD    3
  ---------------------------------------------------------------------------

            1           2           3           4           5           6           7           8           9          10
 ........................................................................................................................
   1    9.998       8.946       7.882       6.807       5.716       4.609       3.483       2.340       1.179      2.5330E-03
   2    9.998       8.948       7.887       6.814       5.727       4.621       3.494       2.347       1.183      2.5408E-03
   3    9.998       8.952       7.896       6.830       5.750       4.648       3.517       2.362       1.190      2.5565E-03
   4    9.998       8.958       7.909       6.854       5.788       4.699       3.555       2.385       1.201      2.5789E-03
   5    9.998       8.963       7.923       6.882       5.845       4.802       3.613       2.413       1.212      2.6033E-03
   6    9.998       8.966       7.930       6.902       5.909       5.078       3.679       2.434       1.219      2.6173E-03
   7    9.998       8.964       7.924       6.884       5.848       4.804       3.616       2.415       1.213      2.6053E-03
   8    9.998       8.960       7.913       6.858       5.794       4.705       3.561       2.389       1.203      2.5836E-03
   9    9.998       8.955       7.902       6.838       5.760       4.659       3.526       2.369       1.194      2.5648E-03
  10    9.998       8.953       7.897       6.828       5.744       4.639       3.510       2.359       1.189      2.5546E-03
1
              HEAD IN LAYER   3 AT END OF TIME STEP   1 IN STRESS PERIOD    3
  ---------------------------------------------------------------------------

            1           2           3           4           5           6           7           8           9          10
 ........................................................................................................................
   1    9.998       8.945       7.881       6.805       5.715       4.608       3.482       2.338       1.178      2.5833E-03
   2    9.998       8.947       7.886       6.813       5.726       4.620       3.493       2.346       1.181      2.5913E-03
   3    9.998       8.951       7.895       6.829       5.749       4.647       3.515       2.361       1.189      2.6073E-03
   4    9.998       8.957       7.908       6.853       5.787       4.698       3.554       2.384       1.199      2.6302E-03
   5    9.998       8.962       7.922       6.881       5.843       4.794       3.611       2.412       1.211      2.6549E-03
   6    9.998       8.965       7.929       6.901       5.902       4.989       3.671       2.431       1.217      2.6690E-03
   7    9.998       8.963       7.923       6.883       5.846       4.796       3.613       2.413       1.211      2.6570E-03
   8    9.998       8.959       7.912       6.858       5.793       4.704       3.559       2.388       1.201      2.6350E-03
   9    9.998       8.954       7.901       6.838       5.759       4.658       3.525       2.368       1.193      2.6159E-03
  10    9.998       8.952       7.896       6.827       5.743       4.639       3.509       2.358       1.188      2.6055E-03
1
              HEAD IN LAYER   4 AT END OF TIME STEP   1 IN STRESS PERIOD    3
  ---------------------------------------------------------------------------

            1           2           3           4           5           6           7           8           9          10
 ........................................................................................................................
   1    9.998       8.944       7.881       6.805       5.715       4.607       3.482       2.337       1.177      2.5834E-03
   2    9.998       8.946       7.885       6.813       5.725       4.619       3.492       2.345       1.181      2.5914E-03
   3    9.998       8.951       7.895       6.828       5.748       4.646       3.515       2.360       1.188      2.6074E-03
   4    9.998       8.956       7.908       6.852       5.786       4.696       3.553       2.383       1.198      2.6303E-03
   5    9.998       8.962       7.921       6.880       5.842       4.787       3.609       2.411       1.209      2.6550E-03
   6    9.998       8.964       7.928       6.899       5.896       4.937       3.664       2.430       1.216      2.6690E-03
   7    9.998       8.962       7.923       6.882       5.844       4.790       3.611       2.412       1.210      2.6571E-03
   8    9.998       8.958       7.911       6.857       5.792       4.702       3.558       2.387       1.200      2.6351E-03
   9    9.998       8.954       7.901       6.837       5.759       4.657       3.525       2.367       1.192      2.6161E-03
  10    9.998       8.951       7.895       6.827       5.743       4.638       3.509       2.357       1.187      2.6057E-03
1
              HEAD IN LAYER   5 AT END OF TIME STEP   1 IN STRESS PERIOD    3
  ---------------------------------------------------------------------------

            1           2           3           4           5           6           7           8           9          10
 ........................................................................................................................
   1    9.998       8.944       7.880       6.804       5.714       4.607       3.481       2.337       1.176      2.5825E-03
   2    9.998       8.946       7.885       6.812       5.725       4.619       3.492       2.344       1.180      2.5905E-03
   3    9.998       8.950       7.894       6.828       5.748       4.646       3.514       2.359       1.187      2.6065E-03
   4    9.998       8.956       7.907       6.852       5.786       4.696       3.552       2.382       1.198      2.6293E-03
   5    9.998       8.961       7.921       6.880       5.841       4.784       3.608       2.410       1.209      2.6540E-03
   6    9.998       8.964       7.928       6.899       5.893       4.913       3.660       2.429       1.215      2.6679E-03
   7    9.998       8.962       7.922       6.882       5.843       4.786       3.610       2.412       1.210      2.6561E-03
   8    9.998       8.958       7.911       6.857       5.792       4.702       3.558       2.386       1.200      2.6342E-03
   9    9.998       8.953       7.900       6.837       5.758       4.657       3.524       2.367       1.191      2.6152E-03
  10    9.998       8.951       7.895       6.826       5.742       4.638       3.508       2.357       1.187      2.6048E-03

 HEAD WILL BE SAVED ON UNIT   51 AT END OF TIME STEP    1, STRESS PERIOD    3

 DRAWDOWN WILL BE SAVED ON UNIT   52 AT END OF TIME STEP    1, STRESS PERIOD    3
1
  VOLUMETRIC BUDGET FOR ENTIRE MODEL AT END OF TIME STEP    1, STRESS PERIOD   3
  ------------------------------------------------------------------------------

     CUMULATIVE VOLUMES      L**3       RATES FOR THIS TIME STEP      L**3/T
     ------------------                 ------------------------

           IN:                                      IN:
           ---                                      ---
             STORAGE =          31.8260               STORAGE =          31.8260
       CONSTANT HEAD =           0.0000         CONSTANT HEAD =           0.0000
               WELLS =       10060.0000                 WELLS =          60.0000
     HEAD DEP BOUNDS =      117732.6328       HEAD DEP BOUNDS =        1140.7526

            TOTAL IN =      127824.4609              TOTAL IN =        1232.5785

          OUT:                                     OUT:
          ----                                     ----
             STORAGE =        7013.6299               STORAGE =          31.1464
       CONSTANT HEAD =           0.0000         CONSTANT HEAD =           0.0000
               WELLS =           0.0000                 WELLS =           0.0000
     HEAD DEP BOUNDS =      120808.4609       HEAD DEP BOUNDS =        1201.3981

           TOTAL OUT =      127822.0938             TOTAL OUT =        1232.5446

            IN - OUT =           2.3672              IN - OUT =       3.3936E-02

 PERCENT DISCREPANCY =           0.00     PERCENT DISCREPANCY =           0.00






         TIME SUMMARY AT END OF TIME STEP    1 IN STRESS PERIOD    3
                    SECONDS     MINUTES      HOURS       DAYS        YEARS
                    -----------------------------------------------------------
   TIME STEP LENGTH  86400.      1440.0      24.000      1.0000     2.73785E-03
 STRESS PERIOD TIME  86400.      1440.0      24.000      1.0000     2.73785E-03
         TOTAL TIME 8.81280E+06 1.46880E+05  2448.0      102.00     0.27926    
1
 
 SOLVING FOR HEAD 

 OUTPUT CONTROL FOR STRESS PERIOD    3   TIME STEP    2
    SAVE HEAD FOR ALL LAYERS
    SAVE DRAWDOWN FOR ALL LAYERS
    SAVE BUDGET
    PRINT HEAD FOR ALL LAYERS
    PRINT BUDGET
 UBDSV1 SAVING "         STORAGE" ON UNIT  53 AT TIME STEP  2, STRESS PERIOD   3
 UBDSV2 SAVING "   CONSTANT HEAD" ON UNIT  53 AT TIME STEP  2, STRESS PERIOD   3
 UBDSV1 SAVING "FLOW RIGHT FACE " ON UNIT  53 AT TIME STEP  2, STRESS PERIOD   3
 UBDSV1 SAVING "FLOW FRONT FACE " ON UNIT  53 AT TIME STEP  2, STRESS PERIOD   3
 UBDSV1 SAVING "FLOW LOWER FACE " ON UNIT  53 AT TIME STEP  2, STRESS PERIOD   3

 SAVING SATURATED THICKNESS AND FLOW TERMS ON UNIT   54 FOR MT3DMS
 BY THE LINK-MT3DMS PACKAGE V7 AT TIME STEP    2, STRESS PERIOD    3

1
              HEAD IN LAYER   1 AT END OF TIME STEP   2 IN STRESS PERIOD    3
  ---------------------------------------------------------------------------

            1           2           3           4           5           6           7           8           9          10
 ........................................................................................................................
   1    9.998       8.948       7.884       6.808       5.718       4.611       3.485       2.342       1.181      1.5406E-03
   2    9.998       8.950       7.889       6.816       5.728       4.623       3.496       2.349       1.185      1.5455E-03
   3    9.998       8.954       7.898       6.832       5.751       4.650       3.518       2.364       1.192      1.5555E-03
   4    9.998       8.960       7.911       6.855       5.790       4.701       3.557       2.387       1.203      1.5696E-03
   5    9.998       8.965       7.924       6.883       5.847       4.805       3.616       2.415       1.214      1.5851E-03
   6    9.998       8.968       7.932       6.903       5.913       5.066       3.683       2.436       1.221      1.5940E-03
   7    9.998       8.966       7.926       6.886       5.850       4.808       3.618       2.417       1.215      1.5863E-03
   8    9.998       8.961       7.914       6.860       5.795       4.707       3.562       2.391       1.205      1.5725E-03
   9    9.998       8.957       7.904       6.840       5.761       4.660       3.528       2.371       1.196      1.5607E-03
  10    9.998       8.955       7.898       6.830       5.746       4.641       3.512       2.361       1.191      1.5542E-03
1
              HEAD IN LAYER   2 AT END OF TIME STEP   2 IN STRESS PERIOD    3
  ---------------------------------------------------------------------------

            1           2           3           4           5           6           7           8           9          10
 ........................................................................................................................
   1    9.998       8.946       7.883       6.807       5.717       4.610       3.484       2.340       1.180      2.5334E-03
   2    9.998       8.948       7.887       6.815       5.727       4.622       3.494       2.347       1.183      2.5412E-03
   3    9.998       8.953       7.897       6.830       5.750       4.649       3.517       2.362       1.191      2.5569E-03
   4    9.998       8.958       7.910       6.854       5.788       4.699       3.556       2.385       1.201      2.5794E-03
   5    9.998       8.963       7.923       6.882       5.845       4.799       3.613       2.413       1.212      2.6037E-03
   6    9.998       8.966       7.930       6.902       5.907       5.061       3.676       2.433       1.219      2.6176E-03
   7    9.998       8.964       7.925       6.884       5.847       4.801       3.615       2.415       1.213      2.6057E-03
   8    9.998       8.960       7.913       6.859       5.794       4.705       3.561       2.390       1.203      2.5841E-03
   9    9.998       8.956       7.903       6.839       5.760       4.659       3.527       2.370       1.194      2.5653E-03
  10    9.998       8.953       7.897       6.829       5.745       4.640       3.511       2.360       1.190      2.5551E-03
1
              HEAD IN LAYER   3 AT END OF TIME STEP   2 IN STRESS PERIOD    3
  ---------------------------------------------------------------------------

            1           2           3           4           5           6           7           8           9          10
 ........................................................................................................................
   1    9.998       8.945       7.882       6.806       5.716       4.609       3.483       2.339       1.178      2.5837E-03
   2    9.998       8.947       7.886       6.814       5.726       4.621       3.493       2.346       1.182      2.5917E-03
   3    9.998       8.951       7.896       6.829       5.749       4.647       3.516       2.361       1.189      2.6077E-03
   4    9.998       8.957       7.909       6.853       5.787       4.697       3.554       2.384       1.199      2.6306E-03
   5    9.998       8.962       7.922       6.881       5.842       4.790       3.610       2.412       1.211      2.6552E-03
   6    9.998       8.965       7.929       6.900       5.899       4.975       3.667       2.431       1.217      2.6692E-03
   7    9.998       8.963       7.924       6.883       5.845       4.793       3.612       2.414       1.212      2.6574E-03
   8    9.998       8.959       7.912       6.858       5.793       4.703       3.559       2.388       1.202      2.6354E-03
   9    9.998       8.955       7.902       6.838       5.760       4.658       3.526       2.368       1.193      2.6164E-03
  10    9.998       8.952       7.896       6.828       5.744       4.639       3.510       2.358       1.188      2.6060E-03
1
              HEAD IN LAYER   4 AT END OF TIME STEP   2 IN STRESS PERIOD    3
  ---------------------------------------------------------------------------

            1           2           3           4           5           6           7           8           9          10
 ........................................................................................................................
   1    9.998       8.944       7.881       6.805       5.715       4.608       3.482       2.338       1.177      2.5838E-03
   2    9.998       8.946       7.886       6.813       5.726       4.620       3.492       2.345       1.181      2.5918E-03
   3    9.998       8.951       7.895       6.829       5.748       4.647       3.515       2.360       1.188      2.6078E-03
   4    9.998       8.956       7.908       6.852       5.786       4.696       3.553       2.383       1.198      2.6306E-03
   5    9.998       8.962       7.921       6.880       5.840       4.784       3.608       2.410       1.210      2.6552E-03
   6    9.998       8.964       7.929       6.899       5.893       4.924       3.660       2.429       1.216      2.6691E-03
   7    9.998       8.963       7.923       6.882       5.843       4.787       3.610       2.412       1.211      2.6574E-03
   8    9.998       8.958       7.911       6.857       5.792       4.702       3.559       2.387       1.201      2.6355E-03
   9    9.998       8.954       7.901       6.837       5.759       4.658       3.525       2.368       1.192      2.6166E-03
  10    9.998       8.951       7.895       6.827       5.743       4.639       3.509       2.357       1.187      2.6062E-03
1
              HEAD IN LAYER   5 AT END OF TIME STEP   2 IN STRESS PERIOD    3
  ---------------------------------------------------------------------------

            1           2           3           4           5           6           7           8           9          10
 ........................................................................................................................
   1    9.998       8.944       7.880       6.805       5.715       4.608       3.482       2.337       1.177      2.5829E-03
   2    9.998       8.946       7.885       6.813       5.725       4.619       3.492       2.345       1.180      2.5909E-03
   3    9.998       8.950       7.895       6.828       5.748       4.646       3.515       2.360       1.188      2.6069E-03
   4    9.998       8.956       7.908       6.852       5.786       4.695       3.552       2.382       1.198      2.6297E-03
   5    9.998       8.961       7.921       6.880       5.839       4.780       3.606       2.410       1.209      2.6542E-03
   6    9.998       8.964       7.928       6.898       5.889       4.901       3.657       2.428       1.215      2.6680E-03
   7    9.998       8.962       7.923       6.882       5.842       4.783       3.609       2.412       1.210      2.6563E-03
   8    9.998       8.958       7.911       6.857       5.792       4.701       3.558       2.387       1.200      2.6346E-03
   9    9.998       8.954       7.901       6.837       5.759       4.657       3.525       2.367       1.192      2.6156E-03
  10    9.998       8.951       7.895       6.827       5.743       4.638       3.509       2.357       1.187      2.6053E-03

 HEAD WILL BE SAVED ON UNIT   51 AT END OF TIME STEP    2, STRESS PERIOD    3

 DRAWDOWN WILL BE SAVED ON UNIT   52 AT END OF TIME STEP    2, STRESS PERIOD    3
1
  VOLUMETRIC BUDGET FOR ENTIRE MODEL AT END OF TIME STEP    2, STRESS PERIOD   3
  ------------------------------------------------------------------------------

     CUMULATIVE VOLUMES      L**3       RATES FOR THIS TIME STEP      L**3/T
     ------------------                 ------------------------

           IN:                                      IN:
           ---                                      ---
             STORAGE =          60.7120               STORAGE =          28.8860
       CONSTANT HEAD =           0.0000         CONSTANT HEAD =           0.0000
               WELLS =       10120.0000                 WELLS =          60.0000
     HEAD DEP BOUNDS =      118873.1953       HEAD DEP BOUNDS =        1140.5587

            TOTAL IN =      129053.9062              TOTAL IN =        1229.4448

          OUT:                                     OUT:
          ----                                     ----
             STORAGE =        7041.4575               STORAGE =          27.8276
       CONSTANT HEAD =           0.0000         CONSTANT HEAD =           0.0000
               WELLS =           0.0000                 WELLS =           0.0000
     HEAD DEP BOUNDS =      122010.0391       HEAD DEP BOUNDS =        1201.5784

           TOTAL OUT =      129051.5000             TOTAL OUT =        1229.4060

            IN - OUT =           2.4062              IN - OUT =       3.8818E-02

 PERCENT DISCREPANCY =           0.00     PERCENT DISCREPANCY =           0.00






         TIME SUMMARY AT END OF TIME STEP    2 IN STRESS PERIOD    3
                    SECONDS     MINUTES      HOURS       DAYS        YEARS
                    -----------------------------------------------------------
   TIME STEP LENGTH  86400.      1440.0      24.000      1.0000     2.73785E-03
 STRESS PERIOD TIME 1.72800E+05  2880.0      48.000      2.0000     5.47570E-03
         TOTAL TIME 8.89920E+06 1.48320E+05  2472.0      103.00     0.28200    
1
 
 SOLVING FOR HEAD 

 OUTPUT CONTROL FOR STRESS PERIOD    3   TIME STEP    3
    SAVE HEAD FOR ALL LAYERS
    SAVE DRAWDOWN FOR ALL LAYERS
    SAVE BUDGET
    PRINT HEAD FOR ALL LAYERS
    PRINT BUDGET
 UBDSV1 SAVING "         STORAGE" ON UNIT  53 AT TIME STEP  3, STRESS PERIOD   3
 UBDSV2 SAVING "   CONSTANT HEAD" ON UNIT  53 AT TIME STEP  3, STRESS PERIOD   3
 UBDSV1 SAVING "FLOW RIGHT FACE " ON UNIT  53 AT TIME STEP  3, STRESS PERIOD   3
 UBDSV1 SAVING "FLOW FRONT FACE " ON UNIT  53 AT TIME STEP  3, STRESS PERIOD   3
 UBDSV1 SAVING "FLOW LOWER FACE " ON UNIT  53 AT TIME STEP  3, STRESS PERIOD   3

 SAVING SATURATED THICKNESS AND FLOW TERMS ON UNIT   54 FOR MT3DMS
 BY THE LINK-MT3DMS PACKAGE V7 AT TIME STEP    3, STRESS PERIOD    3

1
              HEAD IN LAYER   1 AT END OF TIME STEP   3 IN STRESS PERIOD    3
  ---------------------------------------------------------------------------

            1           2           3           4           5           6           7           8           9          10
 ........................................................................................................................
   1    9.998       8.948       7.884       6.809       5.718       4.611       3.486       2.342       1.181      1.5408E-03
   2    9.998       8.950       7.889       6.816       5.729       4.623       3.496       2.349       1.185      1.5458E-03
   3    9.998       8.954       7.898       6.832       5.752       4.650       3.519       2.364       1.192      1.5557E-03
   4    9.998       8.960       7.911       6.856       5.790       4.701       3.557       2.387       1.203      1.5699E-03
   5    9.998       8.965       7.925       6.884       5.847       4.803       3.615       2.416       1.214      1.5853E-03
   6    9.998       8.968       7.932       6.904       5.911       5.050       3.681       2.436       1.221      1.5941E-03
   7    9.998       8.966       7.926       6.886       5.849       4.806       3.618       2.417       1.215      1.5866E-03
   8    9.998       8.961       7.915       6.860       5.796       4.707       3.563       2.391       1.205      1.5728E-03
   9    9.998       8.957       7.904       6.840       5.762       4.661       3.529       2.372       1.196      1.5610E-03
  10    9.998       8.955       7.899       6.830       5.746       4.642       3.513       2.361       1.192      1.5546E-03
1
              HEAD IN LAYER   2 AT END OF TIME STEP   3 IN STRESS PERIOD    3
  ---------------------------------------------------------------------------

            1           2           3           4           5           6           7           8           9          10
 ........................................................................................................................
   1    9.998       8.946       7.883       6.807       5.717       4.610       3.484       2.340       1.180      2.5338E-03
   2    9.998       8.948       7.888       6.815       5.728       4.622       3.495       2.348       1.183      2.5416E-03
   3    9.998       8.953       7.897       6.831       5.751       4.649       3.517       2.363       1.191      2.5573E-03
   4    9.998       8.958       7.910       6.854       5.789       4.699       3.556       2.386       1.201      2.5798E-03
   5    9.998       8.964       7.923       6.882       5.844       4.796       3.612       2.414       1.212      2.6040E-03
   6    9.998       8.966       7.931       6.902       5.904       5.049       3.674       2.433       1.219      2.6178E-03
   7    9.998       8.964       7.925       6.885       5.847       4.799       3.615       2.415       1.213      2.6061E-03
   8    9.998       8.960       7.913       6.859       5.794       4.705       3.561       2.390       1.203      2.5845E-03
   9    9.998       8.956       7.903       6.839       5.761       4.660       3.527       2.370       1.195      2.5658E-03
  10    9.998       8.953       7.897       6.829       5.745       4.641       3.511       2.360       1.190      2.5556E-03
1
              HEAD IN LAYER   3 AT END OF TIME STEP   3 IN STRESS PERIOD    3
  ---------------------------------------------------------------------------

            1           2           3           4           5           6           7           8           9          10
 ........................................................................................................................
   1    9.998       8.945       7.882       6.806       5.716       4.609       3.483       2.339       1.178      2.5841E-03
   2    9.998       8.947       7.887       6.814       5.727       4.621       3.494       2.346       1.182      2.5921E-03
   3    9.998       8.952       7.896       6.830       5.750       4.648       3.516       2.361       1.189      2.6081E-03
   4    9.998       8.957       7.909       6.853       5.787       4.697       3.554       2.384       1.200      2.6309E-03
   5    9.998       8.963       7.922       6.881       5.842       4.788       3.609       2.412       1.211      2.6555E-03
   6    9.998       8.965       7.930       6.900       5.896       4.966       3.665       2.431       1.217      2.6693E-03
   7    9.998       8.963       7.924       6.883       5.844       4.791       3.611       2.414       1.212      2.6576E-03
   8    9.998       8.959       7.912       6.858       5.793       4.703       3.560       2.388       1.202      2.6358E-03
   9    9.998       8.955       7.902       6.839       5.760       4.659       3.526       2.369       1.193      2.6169E-03
  10    9.998       8.952       7.896       6.828       5.744       4.640       3.510       2.359       1.188      2.6065E-03
1
              HEAD IN LAYER   4 AT END OF TIME STEP   3 IN STRESS PERIOD    3
  ---------------------------------------------------------------------------

            1           2           3           4           5           6           7           8           9          10
 ........................................................................................................................
   1    9.998       8.944       7.881       6.806       5.716       4.608       3.482       2.338       1.177      2.5842E-03
   2    9.998       8.947       7.886       6.813       5.726       4.620       3.493       2.345       1.181      2.5922E-03
   3    9.998       8.951       7.895       6.829       5.749       4.647       3.515       2.360       1.188      2.6082E-03
   4    9.998       8.957       7.908       6.853       5.786       4.696       3.553       2.383       1.199      2.6310E-03
   5    9.998       8.962       7.922       6.880       5.840       4.781       3.607       2.410       1.210      2.6554E-03
   6    9.998       8.965       7.929       6.899       5.890       4.917       3.658       2.429       1.216      2.6691E-03
   7    9.998       8.963       7.923       6.882       5.842       4.784       3.609       2.412       1.211      2.6576E-03
   8    9.998       8.958       7.912       6.858       5.792       4.702       3.559       2.387       1.201      2.6359E-03
   9    9.998       8.954       7.901       6.838       5.759       4.658       3.525       2.368       1.192      2.6170E-03
  10    9.998       8.952       7.896       6.828       5.744       4.639       3.510       2.358       1.187      2.6067E-03
1
              HEAD IN LAYER   5 AT END OF TIME STEP   3 IN STRESS PERIOD    3
  ---------------------------------------------------------------------------

            1           2           3           4           5           6           7           8           9          10
 ........................................................................................................................
   1    9.998       8.944       7.881       6.805       5.715       4.608       3.482       2.338       1.177      2.5833E-03
   2    9.998       8.946       7.886       6.813       5.726       4.620       3.492       2.345       1.180      2.5913E-03
   3    9.998       8.951       7.895       6.829       5.748       4.647       3.515       2.360       1.188      2.6072E-03
   4    9.998       8.956       7.908       6.852       5.786       4.695       3.552       2.383       1.198      2.6300E-03
   5    9.998       8.962       7.921       6.880       5.838       4.778       3.605       2.410       1.209      2.6543E-03
   6    9.998       8.964       7.928       6.898       5.887       4.894       3.654       2.428       1.215      2.6680E-03
   7    9.998       8.962       7.923       6.882       5.841       4.780       3.608       2.412       1.210      2.6565E-03
   8    9.998       8.958       7.911       6.857       5.792       4.701       3.558       2.387       1.200      2.6349E-03
   9    9.998       8.954       7.901       6.838       5.759       4.658       3.525       2.367       1.192      2.6161E-03
  10    9.998       8.951       7.895       6.827       5.743       4.639       3.509       2.357       1.187      2.6058E-03

 HEAD WILL BE SAVED ON UNIT   51 AT END OF TIME STEP    3, STRESS PERIOD    3

 DRAWDOWN WILL BE SAVED ON UNIT   52 AT END OF TIME STEP    3, STRESS PERIOD    3
1
  VOLUMETRIC BUDGET FOR ENTIRE MODEL AT END OF TIME STEP    3, STRESS PERIOD   3
  ------------------------------------------------------------------------------

     CUMULATIVE VOLUMES      L**3       RATES FOR THIS TIME STEP      L**3/T
     ------------------                 ------------------------

           IN:                                      IN:
           ---                                      ---
             STORAGE =          87.9605               STORAGE =          27.2485
       CONSTANT HEAD =           0.0000         CONSTANT HEAD =           0.0000
               WELLS =       10180.0000                 WELLS =          60.0000
     HEAD DEP BOUNDS =      120013.5625       HEAD DEP BOUNDS =        1140.3708

            TOTAL IN =      130281.5234              TOTAL IN =        1227.6194

          OUT:                                     OUT:
          ----                                     ----
             STORAGE =        7067.2876               STORAGE =          25.8299
       CONSTANT HEAD =           0.0000         CONSTANT HEAD =           0.0000
               WELLS =           0.0000                 WELLS =           0.0000
     HEAD DEP BOUNDS =      123211.7891       HEAD DEP BOUNDS =        1201.7462

           TOTAL OUT =      130279.0781             TOTAL OUT =        1227.5760

            IN - OUT =           2.4453              IN - OUT =       4.3335E-02

 PERCENT DISCREPANCY =           0.00     PERCENT DISCREPANCY =           0.00






         TIME SUMMARY AT END OF TIME STEP    3 IN STRESS PERIOD    3
                    SECONDS     MINUTES      HOURS       DAYS        YEARS
                    -----------------------------------------------------------
   TIME STEP LENGTH  86400.      1440.0      24.000      1.0000     2.73785E-03
 STRESS PERIOD TIME 2.59200E+05  4320.0      72.000      3.0000     8.21355E-03
         TOTAL TIME 8.98560E+06 1.49760E+05  2496.0      104.00     0.28474    
1
 
 SOLVING FOR HEAD 

 OUTPUT CONTROL FOR STRESS PERIOD    3   TIME STEP    4
    SAVE HEAD FOR ALL LAYERS
    SAVE DRAWDOWN FOR ALL LAYERS
    SAVE BUDGET
    PRINT HEAD FOR ALL LAYERS
    PRINT BUDGET
 UBDSV1 SAVING "         STORAGE" ON UNIT  53 AT TIME STEP  4, STRESS PERIOD   3
 UBDSV2 SAVING "   CONSTANT HEAD" ON UNIT  53 AT TIME STEP  4, STRESS PERIOD   3
 UBDSV1 SAVING "FLOW RIGHT FACE " ON UNIT  53 AT TIME STEP  4, STRESS PERIOD   3
 UBDSV1 SAVING "FLOW FRONT FACE " ON UNIT  53 AT TIME STEP  4, STRESS PERIOD   3
 UBDSV1 SAVING "FLOW LOWER FACE " ON UNIT  53 AT TIME STEP  4, STRESS PERIOD   3

 SAVING SATURATED THICKNESS AND FLOW TERMS ON UNIT   54 FOR MT3DMS
 BY THE LINK-MT3DMS PACKAGE V7 AT TIME STEP    4, STRESS PERIOD    3

1
              HEAD IN LAYER   1 AT END OF TIME STEP   4 IN STRESS PERIOD    3
  ---------------------------------------------------------------------------

            1           2           3           4           5           6           7           8           9          10
 ........................................................................................................................
   1    9.998       8.948       7.885       6.809       5.719       4.612       3.486       2.342       1.182      1.5411E-03
   2    9.998       8.950       7.890       6.817       5.729       4.624       3.497       2.350       1.185      1.5460E-03
   3    9.998       8.954       7.899       6.832       5.752       4.651       3.519       2.365       1.193      1.5560E-03
   4    9.998       8.960       7.912       6.856       5.790       4.701       3.558       2.388       1.203      1.5701E-03
   5    9.998       8.965       7.925       6.884       5.846       4.801       3.615       2.416       1.214      1.5855E-03
   6    9.998       8.968       7.932       6.904       5.908       5.036       3.679       2.436       1.221      1.5944E-03
   7    9.998       8.966       7.926       6.886       5.849       4.803       3.617       2.417       1.215      1.5869E-03
   8    9.998       8.962       7.915       6.861       5.796       4.707       3.563       2.392       1.205      1.5731E-03
   9    9.998       8.957       7.905       6.841       5.763       4.662       3.529       2.372       1.197      1.5614E-03
  10    9.998       8.955       7.899       6.831       5.747       4.642       3.513       2.362       1.192      1.5549E-03
1
              HEAD IN LAYER   2 AT END OF TIME STEP   4 IN STRESS PERIOD    3
  ---------------------------------------------------------------------------

            1           2           3           4           5           6           7           8           9          10
 ........................................................................................................................
   1    9.998       8.946       7.883       6.808       5.718       4.611       3.485       2.341       1.180      2.5341E-03
   2    9.998       8.949       7.888       6.815       5.728       4.623       3.495       2.348       1.184      2.5420E-03
   3    9.998       8.953       7.897       6.831       5.751       4.649       3.518       2.363       1.191      2.5577E-03
   4    9.998       8.958       7.910       6.855       5.789       4.699       3.556       2.386       1.201      2.5801E-03
   5    9.998       8.964       7.924       6.882       5.844       4.794       3.612       2.414       1.213      2.6043E-03
   6    9.998       8.966       7.931       6.902       5.902       5.039       3.672       2.433       1.219      2.6180E-03
   7    9.998       8.965       7.925       6.885       5.846       4.797       3.614       2.415       1.214      2.6064E-03
   8    9.998       8.960       7.914       6.860       5.795       4.705       3.561       2.390       1.204      2.5849E-03
   9    9.998       8.956       7.903       6.840       5.761       4.660       3.528       2.371       1.195      2.5663E-03
  10    9.998       8.953       7.898       6.830       5.746       4.641       3.512       2.360       1.190      2.5561E-03
1
              HEAD IN LAYER   3 AT END OF TIME STEP   4 IN STRESS PERIOD    3
  ---------------------------------------------------------------------------

            1           2           3           4           5           6           7           8           9          10
 ........................................................................................................................
   1    9.998       8.945       7.882       6.807       5.717       4.610       3.484       2.339       1.178      2.5845E-03
   2    9.998       8.948       7.887       6.814       5.727       4.621       3.494       2.347       1.182      2.5925E-03
   3    9.998       8.952       7.896       6.830       5.750       4.648       3.517       2.362       1.189      2.6085E-03
   4    9.998       8.957       7.909       6.854       5.787       4.697       3.554       2.384       1.200      2.6313E-03
   5    9.998       8.963       7.922       6.881       5.841       4.786       3.608       2.412       1.211      2.6557E-03
   6    9.998       8.965       7.930       6.900       5.894       4.958       3.663       2.430       1.217      2.6694E-03
   7    9.998       8.964       7.924       6.883       5.843       4.788       3.611       2.413       1.212      2.6579E-03
   8    9.998       8.959       7.913       6.859       5.793       4.703       3.560       2.389       1.202      2.6362E-03
   9    9.998       8.955       7.902       6.839       5.761       4.659       3.527       2.369       1.193      2.6173E-03
  10    9.998       8.952       7.897       6.829       5.745       4.640       3.511       2.359       1.189      2.6070E-03
1
              HEAD IN LAYER   4 AT END OF TIME STEP   4 IN STRESS PERIOD    3
  ---------------------------------------------------------------------------

            1           2           3           4           5           6           7           8           9          10
 ........................................................................................................................
   1    9.998       8.945       7.881       6.806       5.716       4.609       3.483       2.338       1.177      2.5846E-03
   2    9.998       8.947       7.886       6.814       5.727       4.621       3.493       2.346       1.181      2.5926E-03
   3    9.998       8.951       7.896       6.830       5.749       4.647       3.516       2.361       1.188      2.6086E-03
   4    9.998       8.957       7.909       6.853       5.786       4.695       3.553       2.383       1.199      2.6313E-03
   5    9.998       8.962       7.922       6.880       5.839       4.779       3.606       2.410       1.210      2.6556E-03
   6    9.998       8.965       7.929       6.898       5.888       4.910       3.656       2.428       1.216      2.6692E-03
   7    9.998       8.963       7.923       6.882       5.841       4.782       3.608       2.412       1.211      2.6578E-03
   8    9.998       8.958       7.912       6.858       5.792       4.702       3.559       2.388       1.201      2.6363E-03
   9    9.998       8.954       7.902       6.838       5.760       4.659       3.526       2.368       1.192      2.6175E-03
  10    9.998       8.952       7.896       6.828       5.744       4.640       3.510       2.358       1.188      2.6072E-03
1
              HEAD IN LAYER   5 AT END OF TIME STEP   4 IN STRESS PERIOD    3
  ---------------------------------------------------------------------------

            1           2           3           4           5           6           7           8           9          10
 ........................................................................................................................
   1    9.998       8.944       7.881       6.806       5.716       4.608       3.482       2.338       1.177      2.5836E-03
   2    9.998       8.946       7.886       6.813       5.726       4.620       3.493       2.345       1.181      2.5916E-03
   3    9.998       8.951       7.895       6.829       5.749       4.647       3.515       2.360       1.188      2.6076E-03
   4    9.998       8.956       7.908       6.853       5.786       4.694       3.552       2.383       1.198      2.6303E-03
   5    9.998       8.962       7.921       6.880       5.838       4.775       3.604       2.410       1.209      2.6545E-03
   6    9.998       8.964       7.929       6.898       5.884       4.888       3.652       2.427       1.215      2.6680E-03
   7    9.998       8.963       7.923       6.882       5.840       4.778       3.607       2.411       1.210      2.6567E-03
   8    9.998       8.958       7.912       6.858       5.792       4.701       3.558       2.387       1.200      2.6353E-03
   9    9.998       8.954       7.901       6.838       5.760       4.658       3.525       2.368       1.192      2.6165E-03
  10    9.998       8.951       7.896       6.828       5.744       4.639       3.510       2.358       1.187      2.6063E-03

 HEAD WILL BE SAVED ON UNIT   51 AT END OF TIME STEP    4, STRESS PERIOD    3

 DRAWDOWN WILL BE SAVED ON UNIT   52 AT END OF TIME STEP    4, STRESS PERIOD    3
1
  VOLUMETRIC BUDGET FOR ENTIRE MODEL AT END OF TIME STEP    4, STRESS PERIOD   3
  ------------------------------------------------------------------------------

     CUMULATIVE VOLUMES      L**3       RATES FOR THIS TIME STEP      L**3/T
     ------------------                 ------------------------

           IN:                                      IN:
           ---                                      ---
             STORAGE =         113.8024               STORAGE =          25.8418
       CONSTANT HEAD =           0.0000         CONSTANT HEAD =           0.0000
               WELLS =       10240.0000                 WELLS =          60.0000
     HEAD DEP BOUNDS =      121153.7500       HEAD DEP BOUNDS =        1140.1888

            TOTAL IN =      131507.5469              TOTAL IN =        1226.0306

          OUT:                                     OUT:
          ----                                     ----
             STORAGE =        7091.3667               STORAGE =          24.0791
       CONSTANT HEAD =           0.0000         CONSTANT HEAD =           0.0000
               WELLS =           0.0000                 WELLS =           0.0000
     HEAD DEP BOUNDS =      124413.6953       HEAD DEP BOUNDS =        1201.9054

           TOTAL OUT =      131505.0625             TOTAL OUT =        1225.9845

            IN - OUT =           2.4844              IN - OUT =       4.6143E-02

 PERCENT DISCREPANCY =           0.00     PERCENT DISCREPANCY =           0.00






         TIME SUMMARY AT END OF TIME STEP    4 IN STRESS PERIOD    3
                    SECONDS     MINUTES      HOURS       DAYS        YEARS
                    -----------------------------------------------------------
   TIME STEP LENGTH  86400.      1440.0      24.000      1.0000     2.73785E-03
 STRESS PERIOD TIME 3.45600E+05  5760.0      96.000      4.0000     1.09514E-02
         TOTAL TIME 9.07200E+06 1.51200E+05  2520.0      105.00     0.28747    
1
 
 SOLVING FOR HEAD 

 OUTPUT CONTROL FOR STRESS PERIOD    3   TIME STEP    5
    SAVE HEAD FOR ALL LAYERS
    SAVE DRAWDOWN FOR ALL LAYERS
    SAVE BUDGET
    PRINT HEAD FOR ALL LAYERS
    PRINT BUDGET
 UBDSV1 SAVING "         STORAGE" ON UNIT  53 AT TIME STEP  5, STRESS PERIOD   3
 UBDSV2 SAVING "   CONSTANT HEAD" ON UNIT  53 AT TIME STEP  5, STRESS PERIOD   3
 UBDSV1 SAVING "FLOW RIGHT FACE " ON UNIT  53 AT TIME STEP  5, STRESS PERIOD   3
 UBDSV1 SAVING "FLOW FRONT FACE " ON UNIT  53 AT TIME STEP  5, STRESS PERIOD   3
 UBDSV1 SAVING "FLOW LOWER FACE " ON UNIT  53 AT TIME STEP  5, STRESS PERIOD   3

 SAVING SATURATED THICKNESS AND FLOW TERMS ON UNIT   54 FOR MT3DMS
 BY THE LINK-MT3DMS PACKAGE V7 AT TIME STEP    5, STRESS PERIOD    3

1
              HEAD IN LAYER   1 AT END OF TIME STEP   5 IN STRESS PERIOD    3
  ---------------------------------------------------------------------------

            1           2           3           4           5           6           7           8           9          10
 ........................................................................................................................
   1    9.998       8.948       7.885       6.809       5.719       4.612       3.487       2.343       1.182      1.5413E-03
   2    9.998       8.950       7.890       6.817       5.730       4.624       3.497       2.350       1.185      1.5463E-03
   3    9.998       8.955       7.899       6.833       5.753       4.651       3.520       2.365       1.193      1.5563E-03
   4    9.998       8.960       7.912       6.856       5.791       4.701       3.558       2.388       1.203      1.5703E-03
   5    9.998       8.965       7.925       6.884       5.846       4.799       3.614       2.416       1.215      1.5858E-03
   6    9.998       8.968       7.932       6.903       5.906       5.025       3.676       2.435       1.221      1.5945E-03
   7    9.998       8.966       7.927       6.886       5.849       4.801       3.617       2.418       1.216      1.5871E-03
   8    9.998       8.962       7.915       6.861       5.796       4.707       3.563       2.392       1.206      1.5734E-03
   9    9.998       8.958       7.905       6.841       5.763       4.662       3.530       2.372       1.197      1.5616E-03
  10    9.998       8.955       7.899       6.831       5.747       4.643       3.514       2.362       1.192      1.5552E-03
1
              HEAD IN LAYER   2 AT END OF TIME STEP   5 IN STRESS PERIOD    3
  ---------------------------------------------------------------------------

            1           2           3           4           5           6           7           8           9          10
 ........................................................................................................................
   1    9.998       8.947       7.884       6.808       5.718       4.611       3.485       2.341       1.180      2.5345E-03
   2    9.998       8.949       7.888       6.816       5.729       4.623       3.496       2.348       1.184      2.5424E-03
   3    9.998       8.953       7.898       6.832       5.751       4.650       3.518       2.363       1.191      2.5581E-03
   4    9.998       8.959       7.911       6.855       5.789       4.699       3.556       2.386       1.201      2.5805E-03
   5    9.998       8.964       7.924       6.883       5.843       4.792       3.611       2.414       1.213      2.6045E-03
   6    9.998       8.967       7.931       6.901       5.900       5.031       3.669       2.433       1.219      2.6181E-03
   7    9.998       8.965       7.925       6.885       5.846       4.795       3.613       2.415       1.214      2.6067E-03
   8    9.998       8.960       7.914       6.860       5.795       4.705       3.562       2.390       1.204      2.5853E-03
   9    9.998       8.956       7.904       6.840       5.762       4.661       3.528       2.371       1.195      2.5668E-03
  10    9.998       8.954       7.898       6.830       5.746       4.642       3.513       2.361       1.190      2.5566E-03
1
              HEAD IN LAYER   3 AT END OF TIME STEP   5 IN STRESS PERIOD    3
  ---------------------------------------------------------------------------

            1           2           3           4           5           6           7           8           9          10
 ........................................................................................................................
   1    9.998       8.945       7.882       6.807       5.717       4.610       3.484       2.340       1.179      2.5849E-03
   2    9.998       8.948       7.887       6.815       5.728       4.622       3.494       2.347       1.182      2.5929E-03
   3    9.998       8.952       7.897       6.831       5.750       4.648       3.517       2.362       1.190      2.6089E-03
   4    9.998       8.958       7.909       6.854       5.787       4.697       3.554       2.385       1.200      2.6316E-03
   5    9.998       8.963       7.923       6.881       5.840       4.783       3.607       2.412       1.211      2.6558E-03
   6    9.998       8.966       7.930       6.899       5.892       4.951       3.660       2.430       1.217      2.6695E-03
   7    9.998       8.964       7.924       6.883       5.843       4.786       3.610       2.413       1.212      2.6581E-03
   8    9.998       8.959       7.913       6.859       5.793       4.703       3.560       2.389       1.202      2.6366E-03
   9    9.998       8.955       7.903       6.839       5.761       4.660       3.527       2.370       1.194      2.6178E-03
  10    9.998       8.953       7.897       6.829       5.745       4.641       3.511       2.360       1.189      2.6075E-03
1
              HEAD IN LAYER   4 AT END OF TIME STEP   5 IN STRESS PERIOD    3
  ---------------------------------------------------------------------------

            1           2           3           4           5           6           7           8           9          10
 ........................................................................................................................
   1    9.998       8.945       7.882       6.806       5.716       4.609       3.483       2.339       1.178      2.5850E-03
   2    9.998       8.947       7.887       6.814       5.727       4.621       3.494       2.346       1.181      2.5930E-03
   3    9.998       8.951       7.896       6.830       5.749       4.648       3.516       2.361       1.189      2.6089E-03
   4    9.998       8.957       7.909       6.853       5.786       4.695       3.553       2.383       1.199      2.6316E-03
   5    9.998       8.962       7.922       6.880       5.838       4.777       3.605       2.410       1.210      2.6557E-03
   6    9.998       8.965       7.929       6.898       5.886       4.905       3.653       2.428       1.216      2.6691E-03
   7    9.998       8.963       7.924       6.882       5.841       4.780       3.607       2.412       1.211      2.6579E-03
   8    9.998       8.959       7.912       6.858       5.792       4.701       3.559       2.388       1.201      2.6366E-03
   9    9.998       8.954       7.902       6.839       5.760       4.659       3.526       2.369       1.193      2.6179E-03
  10    9.998       8.952       7.896       6.829       5.745       4.640       3.511       2.359       1.188      2.6077E-03
1
              HEAD IN LAYER   5 AT END OF TIME STEP   5 IN STRESS PERIOD    3
  ---------------------------------------------------------------------------

            1           2           3           4           5           6           7           8           9          10
 ........................................................................................................................
   1    9.998       8.944       7.881       6.806       5.716       4.609       3.483       2.338       1.177      2.5840E-03
   2    9.998       8.947       7.886       6.814       5.727       4.621       3.493       2.346       1.181      2.5920E-03
   3    9.998       8.951       7.896       6.830       5.749       4.647       3.516       2.360       1.188      2.6079E-03
   4    9.998       8.956       7.908       6.853       5.786       4.694       3.552       2.383       1.198      2.6305E-03
   5    9.998       8.962       7.922       6.880       5.837       4.773       3.603       2.409       1.209      2.6546E-03
   6    9.998       8.964       7.929       6.897       5.882       4.883       3.650       2.427       1.215      2.6679E-03
   7    9.998       8.963       7.923       6.882       5.839       4.776       3.606       2.411       1.210      2.6568E-03
   8    9.998       8.958       7.912       6.858       5.792       4.700       3.558       2.387       1.201      2.6356E-03
   9    9.998       8.954       7.902       6.839       5.760       4.658       3.526       2.368       1.192      2.6170E-03
  10    9.998       8.952       7.896       6.828       5.745       4.640       3.510       2.358       1.187      2.6067E-03

 HEAD WILL BE SAVED ON UNIT   51 AT END OF TIME STEP    5, STRESS PERIOD    3

 DRAWDOWN WILL BE SAVED ON UNIT   52 AT END OF TIME STEP    5, STRESS PERIOD    3
1
  VOLUMETRIC BUDGET FOR ENTIRE MODEL AT END OF TIME STEP    5, STRESS PERIOD   3
  ------------------------------------------------------------------------------

     CUMULATIVE VOLUMES      L**3       RATES FOR THIS TIME STEP      L**3/T
     ------------------                 ------------------------

           IN:                                      IN:
           ---                                      ---
             STORAGE =         138.4175               STORAGE =          24.6152
       CONSTANT HEAD =           0.0000         CONSTANT HEAD =           0.0000
               WELLS =       10300.0000                 WELLS =          60.0000
     HEAD DEP BOUNDS =      122293.7578       HEAD DEP BOUNDS =        1140.0061

            TOTAL IN =      132732.1719              TOTAL IN =        1224.6213

          OUT:                                     OUT:
          ----                                     ----
             STORAGE =        7113.8960               STORAGE =          22.5294
       CONSTANT HEAD =           0.0000         CONSTANT HEAD =           0.0000
               WELLS =           0.0000                 WELLS =           0.0000
     HEAD DEP BOUNDS =      125615.7500       HEAD DEP BOUNDS =        1202.0519

           TOTAL OUT =      132729.6406             TOTAL OUT =        1224.5813

            IN - OUT =           2.5312              IN - OUT =       4.0039E-02

 PERCENT DISCREPANCY =           0.00     PERCENT DISCREPANCY =           0.00






         TIME SUMMARY AT END OF TIME STEP    5 IN STRESS PERIOD    3
                    SECONDS     MINUTES      HOURS       DAYS        YEARS
                    -----------------------------------------------------------
   TIME STEP LENGTH  86400.      1440.0      24.000      1.0000     2.73785E-03
 STRESS PERIOD TIME 4.32000E+05  7200.0      120.00      5.0000     1.36893E-02
         TOTAL TIME 9.15840E+06 1.52640E+05  2544.0      106.00     0.29021    
1
 
 SOLVING FOR HEAD 

 OUTPUT CONTROL FOR STRESS PERIOD    3   TIME STEP    6
    SAVE HEAD FOR ALL LAYERS
    SAVE DRAWDOWN FOR ALL LAYERS
    SAVE BUDGET
    PRINT HEAD FOR ALL LAYERS
    PRINT BUDGET
 UBDSV1 SAVING "         STORAGE" ON UNIT  53 AT TIME STEP  6, STRESS PERIOD   3
 UBDSV2 SAVING "   CONSTANT HEAD" ON UNIT  53 AT TIME STEP  6, STRESS PERIOD   3
 UBDSV1 SAVING "FLOW RIGHT FACE " ON UNIT  53 AT TIME STEP  6, STRESS PERIOD   3
 UBDSV1 SAVING "FLOW FRONT FACE " ON UNIT  53 AT TIME STEP  6, STRESS PERIOD   3
 UBDSV1 SAVING "FLOW LOWER FACE " ON UNIT  53 AT TIME STEP  6, STRESS PERIOD   3

 SAVING SATURATED THICKNESS AND FLOW TERMS ON UNIT   54 FOR MT3DMS
 BY THE LINK-MT3DMS PACKAGE V7 AT TIME STEP    6, STRESS PERIOD    3

1
              HEAD IN LAYER   1 AT END OF TIME STEP   6 IN STRESS PERIOD    3
  ---------------------------------------------------------------------------

            1           2           3           4           5           6           7           8           9          10
 ........................................................................................................................
   1    9.998       8.948       7.885       6.810       5.720       4.613       3.487       2.343       1.182      1.5415E-03
   2    9.998       8.951       7.890       6.818       5.730       4.625       3.497       2.350       1.186      1.5465E-03
   3    9.998       8.955       7.899       6.833       5.753       4.651       3.520       2.365       1.193      1.5565E-03
   4    9.998       8.960       7.912       6.857       5.791       4.701       3.558       2.388       1.203      1.5706E-03
   5    9.998       8.966       7.925       6.884       5.845       4.796       3.614       2.416       1.215      1.5859E-03
   6    9.998       8.968       7.933       6.903       5.904       5.015       3.674       2.435       1.221      1.5946E-03
   7    9.998       8.966       7.927       6.886       5.848       4.799       3.616       2.418       1.216      1.5872E-03
   8    9.998       8.962       7.916       6.862       5.797       4.707       3.564       2.392       1.206      1.5737E-03
   9    9.998       8.958       7.905       6.842       5.764       4.663       3.530       2.373       1.197      1.5619E-03
  10    9.998       8.955       7.900       6.832       5.748       4.643       3.514       2.363       1.192      1.5555E-03
1
              HEAD IN LAYER   2 AT END OF TIME STEP   6 IN STRESS PERIOD    3
  ---------------------------------------------------------------------------

            1           2           3           4           5           6           7           8           9          10
 ........................................................................................................................
   1    9.998       8.947       7.884       6.809       5.719       4.612       3.486       2.341       1.180      2.5349E-03
   2    9.998       8.949       7.889       6.816       5.729       4.623       3.496       2.349       1.184      2.5428E-03
   3    9.998       8.953       7.898       6.832       5.752       4.650       3.519       2.364       1.191      2.5585E-03
   4    9.998       8.959       7.911       6.855       5.789       4.699       3.556       2.386       1.202      2.5808E-03
   5    9.998       8.964       7.924       6.883       5.842       4.790       3.610       2.414       1.213      2.6047E-03
   6    9.998       8.967       7.931       6.901       5.898       5.023       3.667       2.432       1.219      2.6182E-03
   7    9.998       8.965       7.926       6.885       5.845       4.792       3.613       2.415       1.214      2.6069E-03
   8    9.998       8.961       7.914       6.860       5.795       4.705       3.562       2.391       1.204      2.5857E-03
   9    9.998       8.956       7.904       6.841       5.762       4.661       3.529       2.371       1.195      2.5672E-03
  10    9.998       8.954       7.898       6.831       5.747       4.642       3.513       2.361       1.191      2.5571E-03
1
              HEAD IN LAYER   3 AT END OF TIME STEP   6 IN STRESS PERIOD    3
  ---------------------------------------------------------------------------

            1           2           3           4           5           6           7           8           9          10
 ........................................................................................................................
   1    9.998       8.946       7.883       6.807       5.718       4.610       3.484       2.340       1.179      2.5853E-03
   2    9.998       8.948       7.888       6.815       5.728       4.622       3.495       2.347       1.182      2.5933E-03
   3    9.998       8.952       7.897       6.831       5.751       4.649       3.517       2.362       1.190      2.6092E-03
   4    9.998       8.958       7.910       6.854       5.787       4.696       3.554       2.385       1.200      2.6319E-03
   5    9.998       8.963       7.923       6.881       5.839       4.781       3.606       2.411       1.211      2.6560E-03
   6    9.998       8.966       7.930       6.899       5.890       4.945       3.658       2.429       1.217      2.6695E-03
   7    9.998       8.964       7.924       6.883       5.842       4.784       3.609       2.413       1.212      2.6582E-03
   8    9.998       8.960       7.913       6.859       5.794       4.703       3.560       2.389       1.202      2.6369E-03
   9    9.998       8.955       7.903       6.840       5.761       4.660       3.527       2.370       1.194      2.6182E-03
  10    9.998       8.953       7.897       6.830       5.746       4.641       3.512       2.360       1.189      2.6080E-03
1
              HEAD IN LAYER   4 AT END OF TIME STEP   6 IN STRESS PERIOD    3
  ---------------------------------------------------------------------------

            1           2           3           4           5           6           7           8           9          10
 ........................................................................................................................
   1    9.998       8.945       7.882       6.807       5.717       4.610       3.484       2.339       1.178      2.5853E-03
   2    9.998       8.947       7.887       6.815       5.727       4.622       3.494       2.346       1.181      2.5933E-03
   3    9.998       8.951       7.896       6.830       5.750       4.648       3.516       2.361       1.189      2.6093E-03
   4    9.998       8.957       7.909       6.853       5.786       4.695       3.553       2.384       1.199      2.6318E-03
   5    9.998       8.962       7.922       6.880       5.837       4.775       3.604       2.410       1.210      2.6558E-03
   6    9.998       8.965       7.929       6.898       5.884       4.900       3.651       2.427       1.216      2.6691E-03
   7    9.998       8.963       7.924       6.882       5.840       4.778       3.606       2.412       1.211      2.6580E-03
   8    9.998       8.959       7.913       6.858       5.792       4.701       3.559       2.388       1.201      2.6369E-03
   9    9.998       8.955       7.902       6.839       5.761       4.659       3.527       2.369       1.193      2.6183E-03
  10    9.998       8.952       7.897       6.829       5.745       4.641       3.511       2.359       1.188      2.6081E-03
1
              HEAD IN LAYER   5 AT END OF TIME STEP   6 IN STRESS PERIOD    3
  ---------------------------------------------------------------------------

            1           2           3           4           5           6           7           8           9          10
 ........................................................................................................................
   1    9.998       8.945       7.882       6.806       5.717       4.609       3.483       2.339       1.177      2.5844E-03
   2    9.998       8.947       7.886       6.814       5.727       4.621       3.494       2.346       1.181      2.5924E-03
   3    9.998       8.951       7.896       6.830       5.749       4.647       3.516       2.361       1.188      2.6083E-03
   4    9.998       8.957       7.909       6.853       5.786       4.694       3.552       2.383       1.198      2.6308E-03
   5    9.998       8.962       7.922       6.880       5.836       4.771       3.602       2.409       1.209      2.6546E-03
   6    9.998       8.965       7.929       6.897       5.880       4.879       3.648       2.426       1.215      2.6678E-03
   7    9.998       8.963       7.923       6.882       5.838       4.774       3.605       2.411       1.210      2.6569E-03
   8    9.998       8.958       7.912       6.858       5.792       4.700       3.558       2.387       1.201      2.6359E-03
   9    9.998       8.954       7.902       6.839       5.760       4.659       3.526       2.368       1.192      2.6174E-03
  10    9.998       8.952       7.896       6.829       5.745       4.640       3.511       2.359       1.188      2.6072E-03

 HEAD WILL BE SAVED ON UNIT   51 AT END OF TIME STEP    6, STRESS PERIOD    3

 DRAWDOWN WILL BE SAVED ON UNIT   52 AT END OF TIME STEP    6, STRESS PERIOD    3
1
  VOLUMETRIC BUDGET FOR ENTIRE MODEL AT END OF TIME STEP    6, STRESS PERIOD   3
  ------------------------------------------------------------------------------

     CUMULATIVE VOLUMES      L**3       RATES FOR THIS TIME STEP      L**3/T
     ------------------                 ------------------------

           IN:                                      IN:
           ---                                      ---
             STORAGE =         161.9197               STORAGE =          23.5022
       CONSTANT HEAD =           0.0000         CONSTANT HEAD =           0.0000
               WELLS =       10360.0000                 WELLS =          60.0000
     HEAD DEP BOUNDS =      123433.5938       HEAD DEP BOUNDS =        1139.8368

            TOTAL IN =      133955.5156              TOTAL IN =        1223.3390

          OUT:                                     OUT:
          ----                                     ----
             STORAGE =        7135.0039               STORAGE =          21.1080
       CONSTANT HEAD =           0.0000         CONSTANT HEAD =           0.0000
               WELLS =           0.0000                 WELLS =           0.0000
     HEAD DEP BOUNDS =      126817.9375       HEAD DEP BOUNDS =        1202.1857

           TOTAL OUT =      133952.9375             TOTAL OUT =        1223.2937

            IN - OUT =           2.5781              IN - OUT =       4.5288E-02

 PERCENT DISCREPANCY =           0.00     PERCENT DISCREPANCY =           0.00






         TIME SUMMARY AT END OF TIME STEP    6 IN STRESS PERIOD    3
                    SECONDS     MINUTES      HOURS       DAYS        YEARS
                    -----------------------------------------------------------
   TIME STEP LENGTH  86400.      1440.0      24.000      1.0000     2.73785E-03
 STRESS PERIOD TIME 5.18400E+05  8640.0      144.00      6.0000     1.64271E-02
         TOTAL TIME 9.24480E+06 1.54080E+05  2568.0      107.00     0.29295    
1
 
 SOLVING FOR HEAD 

 OUTPUT CONTROL FOR STRESS PERIOD    3   TIME STEP    7
    SAVE HEAD FOR ALL LAYERS
    SAVE DRAWDOWN FOR ALL LAYERS
    SAVE BUDGET
    PRINT HEAD FOR ALL LAYERS
    PRINT BUDGET
 UBDSV1 SAVING "         STORAGE" ON UNIT  53 AT TIME STEP  7, STRESS PERIOD   3
 UBDSV2 SAVING "   CONSTANT HEAD" ON UNIT  53 AT TIME STEP  7, STRESS PERIOD   3
 UBDSV1 SAVING "FLOW RIGHT FACE " ON UNIT  53 AT TIME STEP  7, STRESS PERIOD   3
 UBDSV1 SAVING "FLOW FRONT FACE " ON UNIT  53 AT TIME STEP  7, STRESS PERIOD   3
 UBDSV1 SAVING "FLOW LOWER FACE " ON UNIT  53 AT TIME STEP  7, STRESS PERIOD   3

 SAVING SATURATED THICKNESS AND FLOW TERMS ON UNIT   54 FOR MT3DMS
 BY THE LINK-MT3DMS PACKAGE V7 AT TIME STEP    7, STRESS PERIOD    3

1
              HEAD IN LAYER   1 AT END OF TIME STEP   7 IN STRESS PERIOD    3
  ---------------------------------------------------------------------------

            1           2           3           4           5           6           7           8           9          10
 ........................................................................................................................
   1    9.998       8.948       7.886       6.810       5.720       4.613       3.487       2.343       1.182      1.5418E-03
   2    9.998       8.951       7.890       6.818       5.731       4.625       3.498       2.351       1.186      1.5468E-03
   3    9.998       8.955       7.900       6.834       5.753       4.652       3.520       2.366       1.193      1.5567E-03
   4    9.998       8.960       7.913       6.857       5.791       4.701       3.558       2.388       1.204      1.5708E-03
   5    9.998       8.966       7.926       6.884       5.845       4.794       3.613       2.416       1.215      1.5860E-03
   6    9.998       8.968       7.933       6.903       5.902       5.007       3.672       2.435       1.221      1.5947E-03
   7    9.998       8.967       7.927       6.887       5.847       4.797       3.615       2.418       1.216      1.5874E-03
   8    9.998       8.962       7.916       6.862       5.797       4.707       3.564       2.393       1.206      1.5739E-03
   9    9.998       8.958       7.906       6.842       5.764       4.663       3.531       2.373       1.197      1.5623E-03
  10    9.998       8.956       7.900       6.832       5.748       4.644       3.515       2.363       1.193      1.5558E-03
1
              HEAD IN LAYER   2 AT END OF TIME STEP   7 IN STRESS PERIOD    3
  ---------------------------------------------------------------------------

            1           2           3           4           5           6           7           8           9          10
 ........................................................................................................................
   1    9.998       8.947       7.884       6.809       5.719       4.612       3.486       2.342       1.180      2.5353E-03
   2    9.998       8.949       7.889       6.817       5.730       4.624       3.496       2.349       1.184      2.5431E-03
   3    9.998       8.953       7.898       6.832       5.752       4.650       3.519       2.364       1.191      2.5588E-03
   4    9.998       8.959       7.911       6.856       5.789       4.698       3.556       2.387       1.202      2.5811E-03
   5    9.998       8.964       7.924       6.883       5.841       4.788       3.609       2.413       1.213      2.6049E-03
   6    9.998       8.967       7.931       6.901       5.896       5.017       3.665       2.432       1.219      2.6182E-03
   7    9.998       8.965       7.926       6.885       5.844       4.790       3.612       2.415       1.214      2.6071E-03
   8    9.998       8.961       7.915       6.861       5.795       4.705       3.562       2.391       1.204      2.5860E-03
   9    9.998       8.957       7.905       6.841       5.763       4.662       3.529       2.372       1.195      2.5676E-03
  10    9.998       8.954       7.899       6.831       5.747       4.643       3.514       2.362       1.191      2.5575E-03
1
              HEAD IN LAYER   3 AT END OF TIME STEP   7 IN STRESS PERIOD    3
  ---------------------------------------------------------------------------

            1           2           3           4           5           6           7           8           9          10
 ........................................................................................................................
   1    9.998       8.946       7.883       6.808       5.718       4.611       3.485       2.340       1.179      2.5856E-03
   2    9.998       8.948       7.888       6.816       5.728       4.623       3.495       2.348       1.183      2.5936E-03
   3    9.998       8.952       7.897       6.831       5.751       4.649       3.517       2.362       1.190      2.6096E-03
   4    9.998       8.958       7.910       6.854       5.787       4.696       3.554       2.385       1.200      2.6321E-03
   5    9.998       8.963       7.923       6.881       5.838       4.779       3.606       2.411       1.211      2.6561E-03
   6    9.998       8.966       7.930       6.899       5.888       4.940       3.656       2.429       1.217      2.6694E-03
   7    9.998       8.964       7.925       6.883       5.841       4.782       3.608       2.413       1.212      2.6583E-03
   8    9.998       8.960       7.914       6.859       5.794       4.702       3.560       2.389       1.202      2.6372E-03
   9    9.998       8.955       7.903       6.840       5.762       4.660       3.528       2.370       1.194      2.6186E-03
  10    9.998       8.953       7.898       6.830       5.746       4.642       3.512       2.360       1.189      2.6084E-03
1
              HEAD IN LAYER   4 AT END OF TIME STEP   7 IN STRESS PERIOD    3
  ---------------------------------------------------------------------------

            1           2           3           4           5           6           7           8           9          10
 ........................................................................................................................
   1    9.998       8.945       7.882       6.807       5.717       4.610       3.484       2.339       1.178      2.5857E-03
   2    9.998       8.947       7.887       6.815       5.728       4.622       3.494       2.347       1.182      2.5937E-03
   3    9.998       8.952       7.896       6.831       5.750       4.648       3.516       2.361       1.189      2.6096E-03
   4    9.998       8.957       7.909       6.854       5.786       4.694       3.553       2.384       1.199      2.6320E-03
   5    9.998       8.962       7.922       6.880       5.836       4.773       3.603       2.410       1.210      2.6558E-03
   6    9.998       8.965       7.929       6.897       5.882       4.896       3.649       2.427       1.216      2.6690E-03
   7    9.998       8.963       7.924       6.882       5.839       4.776       3.606       2.412       1.211      2.6581E-03
   8    9.998       8.959       7.913       6.859       5.792       4.701       3.559       2.388       1.201      2.6372E-03
   9    9.998       8.955       7.903       6.840       5.761       4.660       3.527       2.369       1.193      2.6187E-03
  10    9.998       8.952       7.897       6.829       5.746       4.641       3.512       2.359       1.188      2.6085E-03
1
              HEAD IN LAYER   5 AT END OF TIME STEP   7 IN STRESS PERIOD    3
  ---------------------------------------------------------------------------

            1           2           3           4           5           6           7           8           9          10
 ........................................................................................................................
   1    9.998       8.945       7.882       6.807       5.717       4.610       3.484       2.339       1.177      2.5847E-03
   2    9.998       8.947       7.887       6.815       5.727       4.622       3.494       2.346       1.181      2.5927E-03
   3    9.998       8.951       7.896       6.830       5.750       4.648       3.516       2.361       1.188      2.6086E-03
   4    9.998       8.957       7.909       6.853       5.786       4.693       3.552       2.383       1.199      2.6310E-03
   5    9.998       8.962       7.922       6.879       5.835       4.770       3.602       2.409       1.209      2.6546E-03
   6    9.998       8.965       7.929       6.896       5.879       4.875       3.646       2.426       1.215      2.6677E-03
   7    9.998       8.963       7.923       6.882       5.838       4.772       3.604       2.411       1.210      2.6569E-03
   8    9.998       8.959       7.913       6.858       5.792       4.700       3.558       2.387       1.201      2.6361E-03
   9    9.998       8.954       7.902       6.839       5.761       4.659       3.526       2.369       1.192      2.6177E-03
  10    9.998       8.952       7.897       6.829       5.746       4.641       3.511       2.359       1.188      2.6076E-03

 HEAD WILL BE SAVED ON UNIT   51 AT END OF TIME STEP    7, STRESS PERIOD    3

 DRAWDOWN WILL BE SAVED ON UNIT   52 AT END OF TIME STEP    7, STRESS PERIOD    3
1
  VOLUMETRIC BUDGET FOR ENTIRE MODEL AT END OF TIME STEP    7, STRESS PERIOD   3
  ------------------------------------------------------------------------------

     CUMULATIVE VOLUMES      L**3       RATES FOR THIS TIME STEP      L**3/T
     ------------------                 ------------------------

           IN:                                      IN:
           ---                                      ---
             STORAGE =         184.3656               STORAGE =          22.4458
       CONSTANT HEAD =           0.0000         CONSTANT HEAD =           0.0000
               WELLS =       10420.0000                 WELLS =          60.0000
     HEAD DEP BOUNDS =      124573.2656       HEAD DEP BOUNDS =        1139.6742

            TOTAL IN =      135177.6250              TOTAL IN =        1222.1200

          OUT:                                     OUT:
          ----                                     ----
             STORAGE =        7154.7617               STORAGE =          19.7580
       CONSTANT HEAD =           0.0000         CONSTANT HEAD =           0.0000
               WELLS =           0.0000                 WELLS =           0.0000
     HEAD DEP BOUNDS =      128020.2422       HEAD DEP BOUNDS =        1202.3079

           TOTAL OUT =      135175.0000             TOTAL OUT =        1222.0658

            IN - OUT =           2.6250              IN - OUT =       5.4199E-02

 PERCENT DISCREPANCY =           0.00     PERCENT DISCREPANCY =           0.00






         TIME SUMMARY AT END OF TIME STEP    7 IN STRESS PERIOD    3
                    SECONDS     MINUTES      HOURS       DAYS        YEARS
                    -----------------------------------------------------------
   TIME STEP LENGTH  86400.      1440.0      24.000      1.0000     2.73785E-03
 STRESS PERIOD TIME 6.04800E+05  10080.      168.00      7.0000     1.91650E-02
         TOTAL TIME 9.33120E+06 1.55520E+05  2592.0      108.00     0.29569    
1
 
 SOLVING FOR HEAD 

 OUTPUT CONTROL FOR STRESS PERIOD    3   TIME STEP    8
    SAVE HEAD FOR ALL LAYERS
    SAVE DRAWDOWN FOR ALL LAYERS
    SAVE BUDGET
    PRINT HEAD FOR ALL LAYERS
    PRINT BUDGET
 UBDSV1 SAVING "         STORAGE" ON UNIT  53 AT TIME STEP  8, STRESS PERIOD   3
 UBDSV2 SAVING "   CONSTANT HEAD" ON UNIT  53 AT TIME STEP  8, STRESS PERIOD   3
 UBDSV1 SAVING "FLOW RIGHT FACE " ON UNIT  53 AT TIME STEP  8, STRESS PERIOD   3
 UBDSV1 SAVING "FLOW FRONT FACE " ON UNIT  53 AT TIME STEP  8, STRESS PERIOD   3
 UBDSV1 SAVING "FLOW LOWER FACE " ON UNIT  53 AT TIME STEP  8, STRESS PERIOD   3

 SAVING SATURATED THICKNESS AND FLOW TERMS ON UNIT   54 FOR MT3DMS
 BY THE LINK-MT3DMS PACKAGE V7 AT TIME STEP    8, STRESS PERIOD    3

1
              HEAD IN LAYER   1 AT END OF TIME STEP   8 IN STRESS PERIOD    3
  ---------------------------------------------------------------------------

            1           2           3           4           5           6           7           8           9          10
 ........................................................................................................................
   1    9.998       8.949       7.886       6.811       5.721       4.614       3.488       2.344       1.182      1.5421E-03
   2    9.998       8.951       7.891       6.818       5.731       4.626       3.498       2.351       1.186      1.5470E-03
   3    9.998       8.955       7.900       6.834       5.754       4.652       3.521       2.366       1.193      1.5569E-03
   4    9.998       8.961       7.913       6.857       5.791       4.701       3.558       2.389       1.204      1.5710E-03
   5    9.998       8.966       7.926       6.884       5.844       4.792       3.612       2.416       1.215      1.5861E-03
   6    9.998       8.969       7.933       6.903       5.900       5.000       3.670       2.434       1.221      1.5947E-03
   7    9.998       8.967       7.927       6.887       5.847       4.795       3.615       2.418       1.216      1.5875E-03
   8    9.998       8.962       7.916       6.862       5.797       4.707       3.564       2.393       1.206      1.5741E-03
   9    9.998       8.958       7.906       6.843       5.764       4.663       3.531       2.374       1.197      1.5625E-03
  10    9.998       8.956       7.900       6.833       5.749       4.645       3.515       2.364       1.193      1.5561E-03
1
              HEAD IN LAYER   2 AT END OF TIME STEP   8 IN STRESS PERIOD    3
  ---------------------------------------------------------------------------

            1           2           3           4           5           6           7           8           9          10
 ........................................................................................................................
   1    9.998       8.947       7.884       6.809       5.719       4.612       3.486       2.342       1.181      2.5356E-03
   2    9.998       8.949       7.889       6.817       5.730       4.624       3.497       2.349       1.184      2.5435E-03
   3    9.998       8.954       7.899       6.833       5.752       4.651       3.519       2.364       1.192      2.5592E-03
   4    9.998       8.959       7.911       6.856       5.789       4.698       3.556       2.387       1.202      2.5813E-03
   5    9.998       8.964       7.924       6.883       5.841       4.786       3.608       2.413       1.213      2.6050E-03
   6    9.998       8.967       7.931       6.900       5.894       5.011       3.663       2.431       1.219      2.6182E-03
   7    9.998       8.965       7.926       6.885       5.843       4.788       3.611       2.415       1.214      2.6072E-03
   8    9.998       8.961       7.915       6.861       5.795       4.704       3.562       2.391       1.204      2.5863E-03
   9    9.998       8.957       7.905       6.842       5.763       4.662       3.529       2.372       1.196      2.5680E-03
  10    9.998       8.954       7.899       6.832       5.748       4.643       3.514       2.362       1.191      2.5580E-03
1
              HEAD IN LAYER   3 AT END OF TIME STEP   8 IN STRESS PERIOD    3
  ---------------------------------------------------------------------------

            1           2           3           4           5           6           7           8           9          10
 ........................................................................................................................
   1    9.998       8.946       7.883       6.808       5.718       4.611       3.485       2.341       1.179      2.5860E-03
   2    9.998       8.948       7.888       6.816       5.729       4.623       3.496       2.348       1.183      2.5940E-03
   3    9.998       8.952       7.897       6.832       5.751       4.649       3.518       2.363       1.190      2.6099E-03
   4    9.998       8.958       7.910       6.855       5.787       4.696       3.554       2.385       1.200      2.6323E-03
   5    9.998       8.963       7.923       6.881       5.837       4.778       3.605       2.411       1.211      2.6561E-03
   6    9.998       8.966       7.930       6.898       5.886       4.936       3.654       2.428       1.217      2.6693E-03
   7    9.998       8.964       7.925       6.883       5.840       4.780       3.607       2.413       1.212      2.6584E-03
   8    9.998       8.960       7.914       6.860       5.794       4.702       3.560       2.389       1.203      2.6375E-03
   9    9.998       8.956       7.904       6.841       5.762       4.661       3.528       2.370       1.194      2.6190E-03
  10    9.998       8.953       7.898       6.831       5.747       4.642       3.513       2.361       1.189      2.6088E-03
1
              HEAD IN LAYER   4 AT END OF TIME STEP   8 IN STRESS PERIOD    3
  ---------------------------------------------------------------------------

            1           2           3           4           5           6           7           8           9          10
 ........................................................................................................................
   1    9.998       8.945       7.883       6.808       5.718       4.611       3.484       2.340       1.178      2.5861E-03
   2    9.998       8.947       7.887       6.815       5.728       4.622       3.495       2.347       1.182      2.5940E-03
   3    9.998       8.952       7.897       6.831       5.750       4.648       3.517       2.362       1.189      2.6099E-03
   4    9.998       8.957       7.909       6.854       5.786       4.694       3.553       2.384       1.199      2.6322E-03
   5    9.998       8.963       7.922       6.880       5.835       4.771       3.602       2.409       1.210      2.6558E-03
   6    9.998       8.965       7.929       6.897       5.880       4.892       3.648       2.426       1.216      2.6688E-03
   7    9.998       8.963       7.924       6.882       5.838       4.774       3.605       2.411       1.211      2.6581E-03
   8    9.998       8.959       7.913       6.859       5.792       4.700       3.558       2.388       1.201      2.6374E-03
   9    9.998       8.955       7.903       6.840       5.761       4.660       3.527       2.369       1.193      2.6191E-03
  10    9.998       8.952       7.897       6.830       5.746       4.642       3.512       2.360       1.189      2.6090E-03
1
              HEAD IN LAYER   5 AT END OF TIME STEP   8 IN STRESS PERIOD    3
  ---------------------------------------------------------------------------

            1           2           3           4           5           6           7           8           9          10
 ........................................................................................................................
   1    9.998       8.945       7.882       6.807       5.717       4.610       3.484       2.339       1.178      2.5851E-03
   2    9.998       8.947       7.887       6.815       5.728       4.622       3.494       2.346       1.181      2.5931E-03
   3    9.998       8.951       7.896       6.830       5.750       4.648       3.516       2.361       1.188      2.6089E-03
   4    9.998       8.957       7.909       6.853       5.786       4.693       3.552       2.383       1.199      2.6312E-03
   5    9.998       8.962       7.922       6.879       5.834       4.768       3.601       2.409       1.209      2.6546E-03
   6    9.998       8.965       7.929       6.896       5.877       4.871       3.644       2.425       1.215      2.6675E-03
   7    9.998       8.963       7.924       6.882       5.837       4.771       3.603       2.411       1.210      2.6570E-03
   8    9.998       8.959       7.913       6.858       5.792       4.700       3.558       2.388       1.201      2.6364E-03
   9    9.998       8.955       7.903       6.840       5.761       4.659       3.527       2.369       1.193      2.6181E-03
  10    9.998       8.952       7.897       6.830       5.746       4.641       3.512       2.359       1.188      2.6080E-03

 HEAD WILL BE SAVED ON UNIT   51 AT END OF TIME STEP    8, STRESS PERIOD    3

 DRAWDOWN WILL BE SAVED ON UNIT   52 AT END OF TIME STEP    8, STRESS PERIOD    3
1
  VOLUMETRIC BUDGET FOR ENTIRE MODEL AT END OF TIME STEP    8, STRESS PERIOD   3
  ------------------------------------------------------------------------------

     CUMULATIVE VOLUMES      L**3       RATES FOR THIS TIME STEP      L**3/T
     ------------------                 ------------------------

           IN:                                      IN:
           ---                                      ---
             STORAGE =         205.8499               STORAGE =          21.4843
       CONSTANT HEAD =           0.0000         CONSTANT HEAD =           0.0000
               WELLS =       10480.0000                 WELLS =          60.0000
     HEAD DEP BOUNDS =      125712.7812       HEAD DEP BOUNDS =        1139.5184

            TOTAL IN =      136398.6250              TOTAL IN =        1221.0027

          OUT:                                     OUT:
          ----                                     ----
             STORAGE =        7173.2959               STORAGE =          18.5342
       CONSTANT HEAD =           0.0000         CONSTANT HEAD =           0.0000
               WELLS =           0.0000                 WELLS =           0.0000
     HEAD DEP BOUNDS =      129222.6562       HEAD DEP BOUNDS =        1202.4180

           TOTAL OUT =      136395.9531             TOTAL OUT =        1220.9521

            IN - OUT =           2.6719              IN - OUT =       5.0537E-02

 PERCENT DISCREPANCY =           0.00     PERCENT DISCREPANCY =           0.00






         TIME SUMMARY AT END OF TIME STEP    8 IN STRESS PERIOD    3
                    SECONDS     MINUTES      HOURS       DAYS        YEARS
                    -----------------------------------------------------------
   TIME STEP LENGTH  86400.      1440.0      24.000      1.0000     2.73785E-03
 STRESS PERIOD TIME 6.91200E+05  11520.      192.00      8.0000     2.19028E-02
         TOTAL TIME 9.41760E+06 1.56960E+05  2616.0      109.00     0.29843    
1
 
 SOLVING FOR HEAD 

 OUTPUT CONTROL FOR STRESS PERIOD    3   TIME STEP    9
    SAVE HEAD FOR ALL LAYERS
    SAVE DRAWDOWN FOR ALL LAYERS
    SAVE BUDGET
    PRINT HEAD FOR ALL LAYERS
    PRINT BUDGET
 UBDSV1 SAVING "         STORAGE" ON UNIT  53 AT TIME STEP  9, STRESS PERIOD   3
 UBDSV2 SAVING "   CONSTANT HEAD" ON UNIT  53 AT TIME STEP  9, STRESS PERIOD   3
 UBDSV1 SAVING "FLOW RIGHT FACE " ON UNIT  53 AT TIME STEP  9, STRESS PERIOD   3
 UBDSV1 SAVING "FLOW FRONT FACE " ON UNIT  53 AT TIME STEP  9, STRESS PERIOD   3
 UBDSV1 SAVING "FLOW LOWER FACE " ON UNIT  53 AT TIME STEP  9, STRESS PERIOD   3

 SAVING SATURATED THICKNESS AND FLOW TERMS ON UNIT   54 FOR MT3DMS
 BY THE LINK-MT3DMS PACKAGE V7 AT TIME STEP    9, STRESS PERIOD    3

1
              HEAD IN LAYER   1 AT END OF TIME STEP   9 IN STRESS PERIOD    3
  ---------------------------------------------------------------------------

            1           2           3           4           5           6           7           8           9          10
 ........................................................................................................................
   1    9.998       8.949       7.886       6.811       5.721       4.614       3.488       2.344       1.183      1.5423E-03
   2    9.998       8.951       7.891       6.819       5.732       4.626       3.499       2.351       1.186      1.5472E-03
   3    9.998       8.955       7.900       6.834       5.754       4.652       3.521       2.366       1.194      1.5572E-03
   4    9.998       8.961       7.913       6.857       5.791       4.700       3.558       2.389       1.204      1.5711E-03
   5    9.998       8.966       7.926       6.884       5.843       4.790       3.611       2.416       1.215      1.5862E-03
   6    9.998       8.969       7.933       6.902       5.898       4.994       3.667       2.434       1.221      1.5947E-03
   7    9.998       8.967       7.928       6.887       5.846       4.793       3.614       2.418       1.216      1.5877E-03
   8    9.998       8.963       7.917       6.863       5.797       4.707       3.564       2.393       1.206      1.5744E-03
   9    9.998       8.958       7.907       6.843       5.765       4.664       3.531       2.374       1.198      1.5627E-03
  10    9.998       8.956       7.901       6.833       5.750       4.645       3.516       2.364       1.193      1.5564E-03
1
              HEAD IN LAYER   2 AT END OF TIME STEP   9 IN STRESS PERIOD    3
  ---------------------------------------------------------------------------

            1           2           3           4           5           6           7           8           9          10
 ........................................................................................................................
   1    9.998       8.947       7.885       6.810       5.720       4.613       3.487       2.342       1.181      2.5360E-03
   2    9.998       8.949       7.890       6.817       5.730       4.625       3.497       2.350       1.184      2.5438E-03
   3    9.998       8.954       7.899       6.833       5.753       4.651       3.519       2.364       1.192      2.5595E-03
   4    9.998       8.959       7.912       6.856       5.789       4.698       3.556       2.387       1.202      2.5816E-03
   5    9.998       8.964       7.924       6.882       5.840       4.784       3.607       2.413       1.213      2.6050E-03
   6    9.998       8.967       7.932       6.900       5.892       5.006       3.661       2.431       1.219      2.6181E-03
   7    9.998       8.965       7.926       6.885       5.843       4.787       3.610       2.415       1.214      2.6073E-03
   8    9.998       8.961       7.915       6.861       5.795       4.704       3.562       2.391       1.204      2.5866E-03
   9    9.998       8.957       7.905       6.842       5.764       4.662       3.530       2.372       1.196      2.5684E-03
  10    9.998       8.954       7.899       6.832       5.748       4.644       3.514       2.362       1.191      2.5584E-03
1
              HEAD IN LAYER   3 AT END OF TIME STEP   9 IN STRESS PERIOD    3
  ---------------------------------------------------------------------------

            1           2           3           4           5           6           7           8           9          10
 ........................................................................................................................
   1    9.998       8.946       7.884       6.809       5.719       4.612       3.486       2.341       1.179      2.5863E-03
   2    9.998       8.948       7.888       6.816       5.729       4.623       3.496       2.348       1.183      2.5943E-03
   3    9.998       8.953       7.898       6.832       5.751       4.649       3.518       2.363       1.190      2.6102E-03
   4    9.998       8.958       7.910       6.855       5.787       4.695       3.554       2.385       1.200      2.6325E-03
   5    9.998       8.963       7.923       6.881       5.837       4.776       3.604       2.411       1.211      2.6561E-03
   6    9.998       8.966       7.930       6.898       5.884       4.932       3.652       2.428       1.217      2.6692E-03
   7    9.998       8.964       7.925       6.883       5.839       4.779       3.606       2.413       1.212      2.6584E-03
   8    9.998       8.960       7.914       6.860       5.793       4.702       3.560       2.389       1.203      2.6377E-03
   9    9.998       8.956       7.904       6.841       5.762       4.661       3.528       2.371       1.194      2.6194E-03
  10    9.998       8.953       7.898       6.831       5.747       4.643       3.513       2.361       1.190      2.6093E-03
1
              HEAD IN LAYER   4 AT END OF TIME STEP   9 IN STRESS PERIOD    3
  ---------------------------------------------------------------------------

            1           2           3           4           5           6           7           8           9          10
 ........................................................................................................................
   1    9.998       8.945       7.883       6.808       5.718       4.611       3.485       2.340       1.178      2.5864E-03
   2    9.998       8.948       7.888       6.816       5.729       4.623       3.495       2.347       1.182      2.5944E-03
   3    9.998       8.952       7.897       6.831       5.751       4.648       3.517       2.362       1.189      2.6102E-03
   4    9.998       8.957       7.910       6.854       5.786       4.694       3.552       2.384       1.199      2.6324E-03
   5    9.998       8.963       7.922       6.880       5.834       4.770       3.601       2.409       1.210      2.6558E-03
   6    9.998       8.965       7.929       6.896       5.878       4.888       3.646       2.426       1.216      2.6687E-03
   7    9.998       8.963       7.924       6.882       5.837       4.772       3.604       2.411       1.211      2.6581E-03
   8    9.998       8.959       7.913       6.859       5.792       4.700       3.558       2.388       1.202      2.6376E-03
   9    9.998       8.955       7.903       6.840       5.762       4.660       3.527       2.370       1.193      2.6194E-03
  10    9.998       8.953       7.898       6.830       5.747       4.642       3.512       2.360       1.189      2.6094E-03
1
              HEAD IN LAYER   5 AT END OF TIME STEP   9 IN STRESS PERIOD    3
  ---------------------------------------------------------------------------

            1           2           3           4           5           6           7           8           9          10
 ........................................................................................................................
   1    9.998       8.945       7.882       6.808       5.718       4.611       3.484       2.339       1.178      2.5854E-03
   2    9.998       8.947       7.887       6.815       5.728       4.622       3.495       2.347       1.181      2.5934E-03
   3    9.998       8.951       7.897       6.831       5.750       4.648       3.516       2.361       1.189      2.6092E-03
   4    9.998       8.957       7.909       6.853       5.785       4.693       3.552       2.383       1.199      2.6313E-03
   5    9.998       8.962       7.922       6.879       5.833       4.766       3.600       2.408       1.209      2.6546E-03
   6    9.998       8.965       7.929       6.895       5.875       4.868       3.642       2.425       1.215      2.6673E-03
   7    9.998       8.963       7.924       6.881       5.836       4.769       3.602       2.410       1.210      2.6569E-03
   8    9.998       8.959       7.913       6.859       5.792       4.699       3.558       2.388       1.201      2.6366E-03
   9    9.998       8.955       7.903       6.840       5.761       4.660       3.527       2.369       1.193      2.6184E-03
  10    9.998       8.952       7.897       6.830       5.746       4.642       3.512       2.360       1.188      2.6084E-03

 HEAD WILL BE SAVED ON UNIT   51 AT END OF TIME STEP    9, STRESS PERIOD    3

 DRAWDOWN WILL BE SAVED ON UNIT   52 AT END OF TIME STEP    9, STRESS PERIOD    3
1
  VOLUMETRIC BUDGET FOR ENTIRE MODEL AT END OF TIME STEP    9, STRESS PERIOD   3
  ------------------------------------------------------------------------------

     CUMULATIVE VOLUMES      L**3       RATES FOR THIS TIME STEP      L**3/T
     ------------------                 ------------------------

           IN:                                      IN:
           ---                                      ---
             STORAGE =         226.4382               STORAGE =          20.5884
       CONSTANT HEAD =           0.0000         CONSTANT HEAD =           0.0000
               WELLS =       10540.0000                 WELLS =          60.0000
     HEAD DEP BOUNDS =      126852.1406       HEAD DEP BOUNDS =        1139.3621

            TOTAL IN =      137618.5781              TOTAL IN =        1219.9504

          OUT:                                     OUT:
          ----                                     ----
             STORAGE =        7190.6777               STORAGE =          17.3818
       CONSTANT HEAD =           0.0000         CONSTANT HEAD =           0.0000
               WELLS =           0.0000                 WELLS =           0.0000
     HEAD DEP BOUNDS =      130425.1797       HEAD DEP BOUNDS =        1202.5198

           TOTAL OUT =      137615.8594             TOTAL OUT =        1219.9016

            IN - OUT =           2.7188              IN - OUT =       4.8828E-02

 PERCENT DISCREPANCY =           0.00     PERCENT DISCREPANCY =           0.00






         TIME SUMMARY AT END OF TIME STEP    9 IN STRESS PERIOD    3
                    SECONDS     MINUTES      HOURS       DAYS        YEARS
                    -----------------------------------------------------------
   TIME STEP LENGTH  86400.      1440.0      24.000      1.0000     2.73785E-03
 STRESS PERIOD TIME 7.77600E+05  12960.      216.00      9.0000     2.46407E-02
         TOTAL TIME 9.50400E+06 1.58400E+05  2640.0      110.00     0.30116    
1
 
 SOLVING FOR HEAD 

 OUTPUT CONTROL FOR STRESS PERIOD    3   TIME STEP   10
    SAVE HEAD FOR ALL LAYERS
    SAVE DRAWDOWN FOR ALL LAYERS
    SAVE BUDGET
    PRINT HEAD FOR ALL LAYERS
    PRINT BUDGET
 UBDSV1 SAVING "         STORAGE" ON UNIT  53 AT TIME STEP 10, STRESS PERIOD   3
 UBDSV2 SAVING "   CONSTANT HEAD" ON UNIT  53 AT TIME STEP 10, STRESS PERIOD   3
 UBDSV1 SAVING "FLOW RIGHT FACE " ON UNIT  53 AT TIME STEP 10, STRESS PERIOD   3
 UBDSV1 SAVING "FLOW FRONT FACE " ON UNIT  53 AT TIME STEP 10, STRESS PERIOD   3
 UBDSV1 SAVING "FLOW LOWER FACE " ON UNIT  53 AT TIME STEP 10, STRESS PERIOD   3

 SAVING SATURATED THICKNESS AND FLOW TERMS ON UNIT   54 FOR MT3DMS
 BY THE LINK-MT3DMS PACKAGE V7 AT TIME STEP   10, STRESS PERIOD    3

1
              HEAD IN LAYER   1 AT END OF TIME STEP  10 IN STRESS PERIOD    3
  ---------------------------------------------------------------------------

            1           2           3           4           5           6           7           8           9          10
 ........................................................................................................................
   1    9.998       8.949       7.886       6.811       5.722       4.615       3.489       2.344       1.183      1.5425E-03
   2    9.998       8.951       7.891       6.819       5.732       4.626       3.499       2.352       1.186      1.5474E-03
   3    9.998       8.955       7.901       6.835       5.754       4.653       3.521       2.366       1.194      1.5574E-03
   4    9.998       8.961       7.913       6.858       5.791       4.700       3.558       2.389       1.204      1.5713E-03
   5    9.998       8.966       7.926       6.884       5.842       4.788       3.610       2.415       1.215      1.5863E-03
   6    9.998       8.969       7.933       6.902       5.896       4.988       3.665       2.434       1.221      1.5946E-03
   7    9.998       8.967       7.928       6.887       5.845       4.791       3.613       2.417       1.216      1.5877E-03
   8    9.998       8.963       7.917       6.863       5.797       4.706       3.564       2.393       1.206      1.5745E-03
   9    9.998       8.959       7.907       6.844       5.765       4.664       3.532       2.374       1.198      1.5631E-03
  10    9.998       8.956       7.901       6.834       5.750       4.646       3.516       2.364       1.193      1.5567E-03
1
              HEAD IN LAYER   2 AT END OF TIME STEP  10 IN STRESS PERIOD    3
  ---------------------------------------------------------------------------

            1           2           3           4           5           6           7           8           9          10
 ........................................................................................................................
   1    9.998       8.947       7.885       6.810       5.720       4.613       3.487       2.343       1.181      2.5363E-03
   2    9.998       8.950       7.890       6.818       5.731       4.625       3.498       2.350       1.185      2.5442E-03
   3    9.998       8.954       7.899       6.833       5.753       4.651       3.520       2.365       1.192      2.5598E-03
   4    9.998       8.959       7.912       6.856       5.789       4.697       3.556       2.387       1.202      2.5818E-03
   5    9.998       8.965       7.925       6.882       5.839       4.782       3.607       2.413       1.213      2.6050E-03
   6    9.998       8.967       7.932       6.900       5.890       5.002       3.659       2.431       1.219      2.6180E-03
   7    9.998       8.965       7.926       6.885       5.842       4.785       3.609       2.415       1.214      2.6073E-03
   8    9.998       8.961       7.915       6.861       5.795       4.704       3.562       2.391       1.204      2.5869E-03
   9    9.998       8.957       7.905       6.842       5.764       4.663       3.530       2.373       1.196      2.5688E-03
  10    9.998       8.955       7.900       6.832       5.749       4.644       3.515       2.363       1.191      2.5588E-03
1
              HEAD IN LAYER   3 AT END OF TIME STEP  10 IN STRESS PERIOD    3
  ---------------------------------------------------------------------------

            1           2           3           4           5           6           7           8           9          10
 ........................................................................................................................
   1    9.998       8.946       7.884       6.809       5.719       4.612       3.486       2.341       1.179      2.5867E-03
   2    9.998       8.948       7.889       6.817       5.730       4.624       3.496       2.348       1.183      2.5947E-03
   3    9.998       8.953       7.898       6.832       5.752       4.649       3.518       2.363       1.190      2.6105E-03
   4    9.998       8.958       7.911       6.855       5.787       4.695       3.554       2.385       1.200      2.6327E-03
   5    9.998       8.963       7.923       6.881       5.836       4.774       3.603       2.411       1.211      2.6561E-03
   6    9.998       8.966       7.930       6.897       5.883       4.929       3.651       2.427       1.217      2.6690E-03
   7    9.998       8.964       7.925       6.883       5.839       4.777       3.605       2.413       1.212      2.6584E-03
   8    9.998       8.960       7.914       6.860       5.793       4.701       3.560       2.389       1.203      2.6379E-03
   9    9.998       8.956       7.904       6.841       5.763       4.661       3.529       2.371       1.194      2.6197E-03
  10    9.998       8.954       7.899       6.831       5.748       4.643       3.514       2.361       1.190      2.6097E-03
1
              HEAD IN LAYER   4 AT END OF TIME STEP  10 IN STRESS PERIOD    3
  ---------------------------------------------------------------------------

            1           2           3           4           5           6           7           8           9          10
 ........................................................................................................................
   1    9.998       8.945       7.883       6.808       5.719       4.611       3.485       2.340       1.178      2.5867E-03
   2    9.998       8.948       7.888       6.816       5.729       4.623       3.495       2.347       1.182      2.5947E-03
   3    9.998       8.952       7.897       6.831       5.751       4.648       3.517       2.362       1.189      2.6104E-03
   4    9.998       8.957       7.910       6.854       5.786       4.693       3.552       2.384       1.199      2.6325E-03
   5    9.998       8.963       7.922       6.879       5.833       4.768       3.600       2.409       1.210      2.6557E-03
   6    9.998       8.965       7.929       6.896       5.877       4.885       3.644       2.425       1.216      2.6684E-03
   7    9.998       8.964       7.924       6.882       5.836       4.771       3.603       2.411       1.211      2.6581E-03
   8    9.998       8.959       7.914       6.859       5.792       4.700       3.558       2.388       1.202      2.6378E-03
   9    9.998       8.955       7.904       6.841       5.762       4.660       3.528       2.370       1.193      2.6198E-03
  10    9.998       8.953       7.898       6.831       5.747       4.642       3.513       2.360       1.189      2.6098E-03
1
              HEAD IN LAYER   5 AT END OF TIME STEP  10 IN STRESS PERIOD    3
  ---------------------------------------------------------------------------

            1           2           3           4           5           6           7           8           9          10
 ........................................................................................................................
   1    9.998       8.945       7.883       6.808       5.718       4.611       3.485       2.340       1.178      2.5858E-03
   2    9.998       8.947       7.888       6.816       5.729       4.623       3.495       2.347       1.182      2.5937E-03
   3    9.998       8.952       7.897       6.831       5.750       4.648       3.517       2.362       1.189      2.6094E-03
   4    9.998       8.957       7.909       6.853       5.785       4.692       3.551       2.383       1.199      2.6314E-03
   5    9.998       8.962       7.922       6.879       5.832       4.765       3.599       2.408       1.209      2.6545E-03
   6    9.998       8.965       7.929       6.895       5.874       4.866       3.641       2.424       1.215      2.6671E-03
   7    9.998       8.963       7.924       6.881       5.835       4.768       3.601       2.410       1.210      2.6569E-03
   8    9.998       8.959       7.913       6.859       5.792       4.699       3.557       2.388       1.201      2.6367E-03
   9    9.998       8.955       7.903       6.840       5.762       4.660       3.527       2.369       1.193      2.6188E-03
  10    9.998       8.952       7.898       6.830       5.747       4.642       3.512       2.360       1.188      2.6088E-03

 HEAD WILL BE SAVED ON UNIT   51 AT END OF TIME STEP   10, STRESS PERIOD    3

 DRAWDOWN WILL BE SAVED ON UNIT   52 AT END OF TIME STEP   10, STRESS PERIOD    3
1
  VOLUMETRIC BUDGET FOR ENTIRE MODEL AT END OF TIME STEP   10, STRESS PERIOD   3
  ------------------------------------------------------------------------------

     CUMULATIVE VOLUMES      L**3       RATES FOR THIS TIME STEP      L**3/T
     ------------------                 ------------------------

           IN:                                      IN:
           ---                                      ---
             STORAGE =         246.2712               STORAGE =          19.8330
       CONSTANT HEAD =           0.0000         CONSTANT HEAD =           0.0000
               WELLS =       10600.0000                 WELLS =          60.0000
     HEAD DEP BOUNDS =      127991.3594       HEAD DEP BOUNDS =        1139.2196

            TOTAL IN =      138837.6250              TOTAL IN =        1219.0526

          OUT:                                     OUT:
          ----                                     ----
             STORAGE =        7207.0728               STORAGE =          16.3952
       CONSTANT HEAD =           0.0000         CONSTANT HEAD =           0.0000
               WELLS =           0.0000                 WELLS =           0.0000
     HEAD DEP BOUNDS =      131627.7812       HEAD DEP BOUNDS =        1202.6083

           TOTAL OUT =      138834.8594             TOTAL OUT =        1219.0035

            IN - OUT =           2.7656              IN - OUT =       4.9072E-02

 PERCENT DISCREPANCY =           0.00     PERCENT DISCREPANCY =           0.00






         TIME SUMMARY AT END OF TIME STEP   10 IN STRESS PERIOD    3
                    SECONDS     MINUTES      HOURS       DAYS        YEARS
                    -----------------------------------------------------------
   TIME STEP LENGTH  86400.      1440.0      24.000      1.0000     2.73785E-03
 STRESS PERIOD TIME 8.64000E+05  14400.      240.00      10.000     2.73785E-02
         TOTAL TIME 9.59040E+06 1.59840E+05  2664.0      111.00     0.30390    
1
 
 SOLVING FOR HEAD 

 OUTPUT CONTROL FOR STRESS PERIOD    3   TIME STEP   11
    SAVE HEAD FOR ALL LAYERS
    SAVE DRAWDOWN FOR ALL LAYERS
    SAVE BUDGET
    PRINT HEAD FOR ALL LAYERS
    PRINT BUDGET
 UBDSV1 SAVING "         STORAGE" ON UNIT  53 AT TIME STEP 11, STRESS PERIOD   3
 UBDSV2 SAVING "   CONSTANT HEAD" ON UNIT  53 AT TIME STEP 11, STRESS PERIOD   3
 UBDSV1 SAVING "FLOW RIGHT FACE " ON UNIT  53 AT TIME STEP 11, STRESS PERIOD   3
 UBDSV1 SAVING "FLOW FRONT FACE " ON UNIT  53 AT TIME STEP 11, STRESS PERIOD   3
 UBDSV1 SAVING "FLOW LOWER FACE " ON UNIT  53 AT TIME STEP 11, STRESS PERIOD   3

 SAVING SATURATED THICKNESS AND FLOW TERMS ON UNIT   54 FOR MT3DMS
 BY THE LINK-MT3DMS PACKAGE V7 AT TIME STEP   11, STRESS PERIOD    3

1
              HEAD IN LAYER   1 AT END OF TIME STEP  11 IN STRESS PERIOD    3
  ---------------------------------------------------------------------------

            1           2           3           4           5           6           7           8           9          10
 ........................................................................................................................
   1    9.998       8.949       7.887       6.812       5.722       4.615       3.489       2.345       1.183      1.5427E-03
   2    9.998       8.951       7.892       6.819       5.733       4.627       3.499       2.352       1.187      1.5477E-03
   3    9.998       8.956       7.901       6.835       5.755       4.653       3.522       2.367       1.194      1.5576E-03
   4    9.998       8.961       7.913       6.858       5.791       4.700       3.558       2.389       1.204      1.5715E-03
   5    9.998       8.966       7.926       6.884       5.842       4.786       3.610       2.415       1.215      1.5863E-03
   6    9.998       8.969       7.933       6.902       5.894       4.983       3.663       2.433       1.221      1.5946E-03
   7    9.998       8.967       7.928       6.887       5.844       4.789       3.612       2.417       1.216      1.5878E-03
   8    9.998       8.963       7.917       6.863       5.797       4.706       3.564       2.393       1.206      1.5747E-03
   9    9.998       8.959       7.907       6.844       5.766       4.664       3.532       2.374       1.198      1.5633E-03
  10    9.998       8.956       7.902       6.834       5.751       4.646       3.517       2.365       1.193      1.5569E-03
1
              HEAD IN LAYER   2 AT END OF TIME STEP  11 IN STRESS PERIOD    3
  ---------------------------------------------------------------------------

            1           2           3           4           5           6           7           8           9          10
 ........................................................................................................................
   1    9.998       8.947       7.885       6.810       5.721       4.614       3.488       2.343       1.181      2.5367E-03
   2    9.998       8.950       7.890       6.818       5.731       4.625       3.498       2.350       1.185      2.5445E-03
   3    9.998       8.954       7.899       6.834       5.753       4.651       3.520       2.365       1.192      2.5601E-03
   4    9.998       8.959       7.912       6.856       5.789       4.697       3.556       2.387       1.202      2.5819E-03
   5    9.998       8.965       7.925       6.882       5.838       4.780       3.606       2.413       1.213      2.6050E-03
   6    9.998       8.967       7.932       6.899       5.888       4.998       3.657       2.430       1.219      2.6179E-03
   7    9.998       8.966       7.926       6.885       5.841       4.783       3.608       2.415       1.214      2.6073E-03
   8    9.998       8.961       7.916       6.861       5.795       4.704       3.561       2.391       1.205      2.5871E-03
   9    9.998       8.957       7.906       6.843       5.764       4.663       3.530       2.373       1.196      2.5691E-03
  10    9.998       8.955       7.900       6.833       5.749       4.645       3.515       2.363       1.192      2.5592E-03
1
              HEAD IN LAYER   3 AT END OF TIME STEP  11 IN STRESS PERIOD    3
  ---------------------------------------------------------------------------

            1           2           3           4           5           6           7           8           9          10
 ........................................................................................................................
   1    9.998       8.946       7.884       6.809       5.720       4.613       3.486       2.341       1.180      2.5870E-03
   2    9.998       8.949       7.889       6.817       5.730       4.624       3.497       2.349       1.183      2.5950E-03
   3    9.998       8.953       7.898       6.832       5.752       4.650       3.518       2.363       1.190      2.6107E-03
   4    9.998       8.958       7.911       6.855       5.787       4.694       3.553       2.385       1.200      2.6328E-03
   5    9.998       8.964       7.923       6.880       5.835       4.773       3.602       2.410       1.211      2.6560E-03
   6    9.998       8.966       7.930       6.897       5.881       4.925       3.649       2.427       1.217      2.6688E-03
   7    9.998       8.964       7.925       6.883       5.838       4.776       3.605       2.412       1.212      2.6584E-03
   8    9.998       8.960       7.914       6.860       5.793       4.701       3.559       2.390       1.203      2.6381E-03
   9    9.998       8.956       7.905       6.842       5.763       4.661       3.529       2.371       1.195      2.6201E-03
  10    9.998       8.954       7.899       6.832       5.748       4.644       3.514       2.362       1.190      2.6101E-03
1
              HEAD IN LAYER   4 AT END OF TIME STEP  11 IN STRESS PERIOD    3
  ---------------------------------------------------------------------------

            1           2           3           4           5           6           7           8           9          10
 ........................................................................................................................
   1    9.998       8.946       7.883       6.809       5.719       4.612       3.485       2.340       1.179      2.5871E-03
   2    9.998       8.948       7.888       6.816       5.729       4.623       3.496       2.348       1.182      2.5950E-03
   3    9.998       8.952       7.897       6.832       5.751       4.649       3.517       2.362       1.189      2.6107E-03
   4    9.998       8.958       7.910       6.854       5.786       4.693       3.552       2.384       1.199      2.6326E-03
   5    9.998       8.963       7.923       6.879       5.833       4.767       3.599       2.409       1.210      2.6556E-03
   6    9.998       8.965       7.929       6.895       5.876       4.883       3.643       2.425       1.216      2.6682E-03
   7    9.998       8.964       7.924       6.882       5.836       4.770       3.602       2.411       1.211      2.6580E-03
   8    9.998       8.960       7.914       6.859       5.792       4.699       3.558       2.388       1.202      2.6380E-03
   9    9.998       8.955       7.904       6.841       5.762       4.660       3.528       2.370       1.194      2.6201E-03
  10    9.998       8.953       7.898       6.831       5.748       4.643       3.513       2.361       1.189      2.6101E-03
1
              HEAD IN LAYER   5 AT END OF TIME STEP  11 IN STRESS PERIOD    3
  ---------------------------------------------------------------------------

            1           2           3           4           5           6           7           8           9          10
 ........................................................................................................................
   1    9.998       8.945       7.883       6.808       5.719       4.611       3.485       2.340       1.178      2.5861E-03
   2    9.998       8.947       7.888       6.816       5.729       4.623       3.495       2.347       1.182      2.5940E-03
   3    9.998       8.952       7.897       6.831       5.751       4.648       3.517       2.362       1.189      2.6097E-03
   4    9.998       8.957       7.910       6.853       5.785       4.692       3.551       2.383       1.199      2.6315E-03
   5    9.998       8.962       7.922       6.879       5.831       4.763       3.598       2.408       1.209      2.6544E-03
   6    9.998       8.965       7.929       6.895       5.872       4.863       3.639       2.424       1.215      2.6669E-03
   7    9.998       8.963       7.924       6.881       5.834       4.766       3.601       2.410       1.210      2.6568E-03
   8    9.998       8.959       7.913       6.859       5.792       4.698       3.557       2.388       1.201      2.6369E-03
   9    9.998       8.955       7.904       6.841       5.762       4.660       3.527       2.370       1.193      2.6191E-03
  10    9.998       8.953       7.898       6.831       5.747       4.642       3.513       2.360       1.189      2.6092E-03

 HEAD WILL BE SAVED ON UNIT   51 AT END OF TIME STEP   11, STRESS PERIOD    3

 DRAWDOWN WILL BE SAVED ON UNIT   52 AT END OF TIME STEP   11, STRESS PERIOD    3
1
  VOLUMETRIC BUDGET FOR ENTIRE MODEL AT END OF TIME STEP   11, STRESS PERIOD   3
  ------------------------------------------------------------------------------

     CUMULATIVE VOLUMES      L**3       RATES FOR THIS TIME STEP      L**3/T
     ------------------                 ------------------------

           IN:                                      IN:
           ---                                      ---
             STORAGE =         265.4163               STORAGE =          19.1451
       CONSTANT HEAD =           0.0000         CONSTANT HEAD =           0.0000
               WELLS =       10660.0000                 WELLS =          60.0000
     HEAD DEP BOUNDS =      129130.4375       HEAD DEP BOUNDS =        1139.0765

            TOTAL IN =      140055.8594              TOTAL IN =        1218.2217

          OUT:                                     OUT:
          ----                                     ----
             STORAGE =        7222.5601               STORAGE =          15.4874
       CONSTANT HEAD =           0.0000         CONSTANT HEAD =           0.0000
               WELLS =           0.0000                 WELLS =           0.0000
     HEAD DEP BOUNDS =      132830.4688       HEAD DEP BOUNDS =        1202.6880

           TOTAL OUT =      140053.0312             TOTAL OUT =        1218.1754

            IN - OUT =           2.8281              IN - OUT =       4.6265E-02

 PERCENT DISCREPANCY =           0.00     PERCENT DISCREPANCY =           0.00






         TIME SUMMARY AT END OF TIME STEP   11 IN STRESS PERIOD    3
                    SECONDS     MINUTES      HOURS       DAYS        YEARS
                    -----------------------------------------------------------
   TIME STEP LENGTH  86400.      1440.0      24.000      1.0000     2.73785E-03
 STRESS PERIOD TIME 9.50400E+05  15840.      264.00      11.000     3.01164E-02
         TOTAL TIME 9.67680E+06 1.61280E+05  2688.0      112.00     0.30664    
1
 
 SOLVING FOR HEAD 

 OUTPUT CONTROL FOR STRESS PERIOD    3   TIME STEP   12
    SAVE HEAD FOR ALL LAYERS
    SAVE DRAWDOWN FOR ALL LAYERS
    SAVE BUDGET
    PRINT HEAD FOR ALL LAYERS
    PRINT BUDGET
 UBDSV1 SAVING "         STORAGE" ON UNIT  53 AT TIME STEP 12, STRESS PERIOD   3
 UBDSV2 SAVING "   CONSTANT HEAD" ON UNIT  53 AT TIME STEP 12, STRESS PERIOD   3
 UBDSV1 SAVING "FLOW RIGHT FACE " ON UNIT  53 AT TIME STEP 12, STRESS PERIOD   3
 UBDSV1 SAVING "FLOW FRONT FACE " ON UNIT  53 AT TIME STEP 12, STRESS PERIOD   3
 UBDSV1 SAVING "FLOW LOWER FACE " ON UNIT  53 AT TIME STEP 12, STRESS PERIOD   3

 SAVING SATURATED THICKNESS AND FLOW TERMS ON UNIT   54 FOR MT3DMS
 BY THE LINK-MT3DMS PACKAGE V7 AT TIME STEP   12, STRESS PERIOD    3

1
              HEAD IN LAYER   1 AT END OF TIME STEP  12 IN STRESS PERIOD    3
  ---------------------------------------------------------------------------

            1           2           3           4           5           6           7           8           9          10
 ........................................................................................................................
   1    9.998       8.949       7.887       6.812       5.722       4.615       3.489       2.345       1.183      1.5430E-03
   2    9.998       8.951       7.892       6.820       5.733       4.627       3.500       2.352       1.187      1.5479E-03
   3    9.998       8.956       7.901       6.835       5.755       4.653       3.522       2.367       1.194      1.5577E-03
   4    9.998       8.961       7.914       6.858       5.791       4.699       3.558       2.389       1.204      1.5716E-03
   5    9.998       8.966       7.926       6.884       5.841       4.784       3.609       2.415       1.215      1.5863E-03
   6    9.998       8.969       7.933       6.901       5.892       4.979       3.662       2.433       1.221      1.5945E-03
   7    9.998       8.967       7.928       6.886       5.844       4.787       3.611       2.417       1.216      1.5878E-03
   8    9.998       8.963       7.917       6.863       5.797       4.706       3.564       2.393       1.207      1.5748E-03
   9    9.998       8.959       7.907       6.844       5.766       4.665       3.532       2.375       1.198      1.5635E-03
  10    9.998       8.956       7.902       6.834       5.751       4.646       3.517       2.365       1.194      1.5572E-03
1
              HEAD IN LAYER   2 AT END OF TIME STEP  12 IN STRESS PERIOD    3
  ---------------------------------------------------------------------------

            1           2           3           4           5           6           7           8           9          10
 ........................................................................................................................
   1    9.998       8.948       7.886       6.811       5.721       4.614       3.488       2.343       1.181      2.5370E-03
   2    9.998       8.950       7.890       6.818       5.732       4.626       3.498       2.350       1.185      2.5448E-03
   3    9.998       8.954       7.900       6.834       5.753       4.651       3.520       2.365       1.192      2.5603E-03
   4    9.998       8.960       7.912       6.856       5.789       4.697       3.555       2.387       1.202      2.5821E-03
   5    9.998       8.965       7.925       6.882       5.837       4.779       3.605       2.412       1.213      2.6050E-03
   6    9.998       8.967       7.932       6.899       5.887       4.995       3.655       2.430       1.219      2.6177E-03
   7    9.998       8.966       7.927       6.884       5.840       4.781       3.607       2.414       1.214      2.6073E-03
   8    9.998       8.961       7.916       6.862       5.795       4.703       3.561       2.391       1.205      2.5873E-03
   9    9.998       8.957       7.906       6.843       5.765       4.663       3.531       2.373       1.196      2.5695E-03
  10    9.998       8.955       7.900       6.833       5.750       4.645       3.516       2.363       1.192      2.5596E-03
1
              HEAD IN LAYER   3 AT END OF TIME STEP  12 IN STRESS PERIOD    3
  ---------------------------------------------------------------------------

            1           2           3           4           5           6           7           8           9          10
 ........................................................................................................................
   1    9.998       8.946       7.884       6.810       5.720       4.613       3.487       2.342       1.180      2.5874E-03
   2    9.998       8.949       7.889       6.817       5.730       4.625       3.497       2.349       1.183      2.5953E-03
   3    9.998       8.953       7.898       6.833       5.752       4.650       3.518       2.363       1.190      2.6110E-03
   4    9.998       8.958       7.911       6.855       5.787       4.694       3.553       2.385       1.200      2.6329E-03
   5    9.998       8.964       7.923       6.880       5.834       4.771       3.601       2.410       1.211      2.6559E-03
   6    9.998       8.966       7.930       6.897       5.880       4.923       3.648       2.426       1.217      2.6686E-03
   7    9.998       8.965       7.925       6.883       5.837       4.774       3.604       2.412       1.212      2.6583E-03
   8    9.998       8.960       7.915       6.860       5.793       4.701       3.559       2.390       1.203      2.6383E-03
   9    9.998       8.956       7.905       6.842       5.763       4.662       3.529       2.371       1.195      2.6204E-03
  10    9.998       8.954       7.899       6.832       5.749       4.644       3.514       2.362       1.190      2.6104E-03
1
              HEAD IN LAYER   4 AT END OF TIME STEP  12 IN STRESS PERIOD    3
  ---------------------------------------------------------------------------

            1           2           3           4           5           6           7           8           9          10
 ........................................................................................................................
   1    9.998       8.946       7.884       6.809       5.719       4.612       3.486       2.341       1.179      2.5874E-03
   2    9.998       8.948       7.888       6.817       5.730       4.624       3.496       2.348       1.182      2.5953E-03
   3    9.998       8.952       7.898       6.832       5.751       4.649       3.517       2.362       1.189      2.6109E-03
   4    9.998       8.958       7.910       6.854       5.786       4.692       3.552       2.384       1.199      2.6327E-03
   5    9.998       8.963       7.923       6.879       5.832       4.765       3.598       2.408       1.210      2.6555E-03
   6    9.998       8.965       7.929       6.895       5.874       4.880       3.641       2.424       1.215      2.6680E-03
   7    9.998       8.964       7.924       6.881       5.835       4.768       3.601       2.410       1.211      2.6579E-03
   8    9.998       8.960       7.914       6.859       5.792       4.699       3.558       2.388       1.202      2.6381E-03
   9    9.998       8.956       7.904       6.841       5.763       4.661       3.528       2.370       1.194      2.6204E-03
  10    9.998       8.953       7.899       6.832       5.748       4.643       3.514       2.361       1.189      2.6105E-03
1
              HEAD IN LAYER   5 AT END OF TIME STEP  12 IN STRESS PERIOD    3
  ---------------------------------------------------------------------------

            1           2           3           4           5           6           7           8           9          10
 ........................................................................................................................
   1    9.998       8.945       7.883       6.809       5.719       4.612       3.485       2.340       1.178      2.5864E-03
   2    9.998       8.948       7.888       6.816       5.729       4.623       3.496       2.347       1.182      2.5943E-03
   3    9.998       8.952       7.897       6.831       5.751       4.648       3.517       2.362       1.189      2.6099E-03
   4    9.998       8.957       7.910       6.854       5.785       4.691       3.551       2.383       1.199      2.6316E-03
   5    9.998       8.962       7.922       6.878       5.831       4.762       3.597       2.408       1.209      2.6542E-03
   6    9.998       8.965       7.929       6.894       5.871       4.861       3.638       2.423       1.215      2.6666E-03
   7    9.998       8.963       7.924       6.881       5.834       4.765       3.600       2.410       1.210      2.6567E-03
   8    9.998       8.959       7.913       6.859       5.791       4.698       3.557       2.388       1.201      2.6370E-03
   9    9.998       8.955       7.904       6.841       5.762       4.660       3.528       2.370       1.193      2.6193E-03
  10    9.998       8.953       7.898       6.831       5.748       4.643       3.513       2.360       1.189      2.6095E-03

 HEAD WILL BE SAVED ON UNIT   51 AT END OF TIME STEP   12, STRESS PERIOD    3

 DRAWDOWN WILL BE SAVED ON UNIT   52 AT END OF TIME STEP   12, STRESS PERIOD    3
1
  VOLUMETRIC BUDGET FOR ENTIRE MODEL AT END OF TIME STEP   12, STRESS PERIOD   3
  ------------------------------------------------------------------------------

     CUMULATIVE VOLUMES      L**3       RATES FOR THIS TIME STEP      L**3/T
     ------------------                 ------------------------

           IN:                                      IN:
           ---                                      ---
             STORAGE =         283.9058               STORAGE =          18.4895
       CONSTANT HEAD =           0.0000         CONSTANT HEAD =           0.0000
               WELLS =       10720.0000                 WELLS =          60.0000
     HEAD DEP BOUNDS =      130269.3828       HEAD DEP BOUNDS =        1138.9474

            TOTAL IN =      141273.2812              TOTAL IN =        1217.4369

          OUT:                                     OUT:
          ----                                     ----
             STORAGE =        7237.1909               STORAGE =          14.6310
       CONSTANT HEAD =           0.0000         CONSTANT HEAD =           0.0000
               WELLS =           0.0000                 WELLS =           0.0000
     HEAD DEP BOUNDS =      134033.2344       HEAD DEP BOUNDS =        1202.7583

           TOTAL OUT =      141270.4219             TOTAL OUT =        1217.3893

            IN - OUT =           2.8594              IN - OUT =       4.7607E-02

 PERCENT DISCREPANCY =           0.00     PERCENT DISCREPANCY =           0.00






         TIME SUMMARY AT END OF TIME STEP   12 IN STRESS PERIOD    3
                    SECONDS     MINUTES      HOURS       DAYS        YEARS
                    -----------------------------------------------------------
   TIME STEP LENGTH  86400.      1440.0      24.000      1.0000     2.73785E-03
 STRESS PERIOD TIME 1.03680E+06  17280.      288.00      12.000     3.28542E-02
         TOTAL TIME 9.76320E+06 1.62720E+05  2712.0      113.00     0.30938    
1
 
 SOLVING FOR HEAD 

 OUTPUT CONTROL FOR STRESS PERIOD    3   TIME STEP   13
    SAVE HEAD FOR ALL LAYERS
    SAVE DRAWDOWN FOR ALL LAYERS
    SAVE BUDGET
    PRINT HEAD FOR ALL LAYERS
    PRINT BUDGET
 UBDSV1 SAVING "         STORAGE" ON UNIT  53 AT TIME STEP 13, STRESS PERIOD   3
 UBDSV2 SAVING "   CONSTANT HEAD" ON UNIT  53 AT TIME STEP 13, STRESS PERIOD   3
 UBDSV1 SAVING "FLOW RIGHT FACE " ON UNIT  53 AT TIME STEP 13, STRESS PERIOD   3
 UBDSV1 SAVING "FLOW FRONT FACE " ON UNIT  53 AT TIME STEP 13, STRESS PERIOD   3
 UBDSV1 SAVING "FLOW LOWER FACE " ON UNIT  53 AT TIME STEP 13, STRESS PERIOD   3

 SAVING SATURATED THICKNESS AND FLOW TERMS ON UNIT   54 FOR MT3DMS
 BY THE LINK-MT3DMS PACKAGE V7 AT TIME STEP   13, STRESS PERIOD    3

1
              HEAD IN LAYER   1 AT END OF TIME STEP  13 IN STRESS PERIOD    3
  ---------------------------------------------------------------------------

            1           2           3           4           5           6           7           8           9          10
 ........................................................................................................................
   1    9.998       8.949       7.887       6.813       5.723       4.616       3.490       2.345       1.183      1.5432E-03
   2    9.998       8.952       7.892       6.820       5.733       4.628       3.500       2.352       1.187      1.5481E-03
   3    9.998       8.956       7.901       6.836       5.755       4.653       3.522       2.367       1.194      1.5579E-03
   4    9.998       8.961       7.914       6.858       5.791       4.699       3.558       2.389       1.204      1.5717E-03
   5    9.998       8.966       7.927       6.884       5.840       4.783       3.608       2.415       1.215      1.5863E-03
   6    9.998       8.969       7.933       6.901       5.890       4.976       3.660       2.432       1.221      1.5944E-03
   7    9.998       8.967       7.928       6.886       5.843       4.785       3.610       2.417       1.216      1.5878E-03
   8    9.998       8.963       7.918       6.863       5.797       4.706       3.564       2.394       1.207      1.5749E-03
   9    9.998       8.959       7.908       6.845       5.766       4.665       3.533       2.375       1.198      1.5637E-03
  10    9.998       8.957       7.902       6.835       5.751       4.647       3.518       2.365       1.194      1.5575E-03
1
              HEAD IN LAYER   2 AT END OF TIME STEP  13 IN STRESS PERIOD    3
  ---------------------------------------------------------------------------

            1           2           3           4           5           6           7           8           9          10
 ........................................................................................................................
   1    9.998       8.948       7.886       6.811       5.722       4.615       3.488       2.343       1.181      2.5374E-03
   2    9.998       8.950       7.891       6.819       5.732       4.626       3.499       2.351       1.185      2.5452E-03
   3    9.998       8.954       7.900       6.834       5.754       4.651       3.520       2.365       1.192      2.5606E-03
   4    9.998       8.960       7.912       6.856       5.789       4.696       3.555       2.387       1.202      2.5822E-03
   5    9.998       8.965       7.925       6.882       5.837       4.777       3.604       2.412       1.213      2.6049E-03
   6    9.998       8.967       7.932       6.898       5.885       4.992       3.654       2.429       1.219      2.6175E-03
   7    9.998       8.966       7.927       6.884       5.839       4.780       3.607       2.414       1.214      2.6073E-03
   8    9.998       8.962       7.916       6.862       5.795       4.703       3.561       2.391       1.205      2.5874E-03
   9    9.998       8.958       7.906       6.843       5.765       4.663       3.531       2.373       1.196      2.5698E-03
  10    9.998       8.955       7.901       6.834       5.750       4.646       3.516       2.364       1.192      2.5600E-03
1
              HEAD IN LAYER   3 AT END OF TIME STEP  13 IN STRESS PERIOD    3
  ---------------------------------------------------------------------------

            1           2           3           4           5           6           7           8           9          10
 ........................................................................................................................
   1    9.998       8.947       7.885       6.810       5.720       4.613       3.487       2.342       1.180      2.5877E-03
   2    9.998       8.949       7.889       6.818       5.731       4.625       3.497       2.349       1.183      2.5956E-03
   3    9.998       8.953       7.899       6.833       5.752       4.650       3.519       2.364       1.191      2.6112E-03
   4    9.998       8.959       7.911       6.855       5.787       4.694       3.553       2.385       1.201      2.6330E-03
   5    9.998       8.964       7.924       6.880       5.833       4.770       3.600       2.410       1.211      2.6558E-03
   6    9.998       8.966       7.930       6.896       5.878       4.920       3.646       2.426       1.217      2.6683E-03
   7    9.998       8.965       7.925       6.882       5.836       4.773       3.603       2.412       1.212      2.6582E-03
   8    9.998       8.960       7.915       6.860       5.793       4.700       3.559       2.390       1.203      2.6384E-03
   9    9.998       8.956       7.905       6.842       5.764       4.662       3.529       2.372       1.195      2.6207E-03
  10    9.998       8.954       7.900       6.833       5.749       4.644       3.515       2.362       1.190      2.6108E-03
1
              HEAD IN LAYER   4 AT END OF TIME STEP  13 IN STRESS PERIOD    3
  ---------------------------------------------------------------------------

            1           2           3           4           5           6           7           8           9          10
 ........................................................................................................................
   1    9.998       8.946       7.884       6.809       5.720       4.613       3.486       2.341       1.179      2.5877E-03
   2    9.998       8.948       7.889       6.817       5.730       4.624       3.496       2.348       1.182      2.5956E-03
   3    9.998       8.952       7.898       6.832       5.751       4.649       3.518       2.363       1.190      2.6111E-03
   4    9.998       8.958       7.910       6.854       5.785       4.692       3.552       2.384       1.199      2.6328E-03
   5    9.998       8.963       7.923       6.879       5.831       4.764       3.598       2.408       1.210      2.6553E-03
   6    9.998       8.965       7.929       6.895       5.873       4.878       3.640       2.424       1.215      2.6677E-03
   7    9.998       8.964       7.924       6.881       5.834       4.767       3.600       2.410       1.211      2.6578E-03
   8    9.998       8.960       7.914       6.859       5.792       4.699       3.558       2.388       1.202      2.6382E-03
   9    9.998       8.956       7.904       6.842       5.763       4.661       3.528       2.371       1.194      2.6206E-03
  10    9.998       8.953       7.899       6.832       5.748       4.644       3.514       2.361       1.189      2.6109E-03
1
              HEAD IN LAYER   5 AT END OF TIME STEP  13 IN STRESS PERIOD    3
  ---------------------------------------------------------------------------

            1           2           3           4           5           6           7           8           9          10
 ........................................................................................................................
   1    9.998       8.945       7.883       6.809       5.719       4.612       3.486       2.341       1.178      2.5867E-03
   2    9.998       8.948       7.888       6.816       5.730       4.624       3.496       2.348       1.182      2.5946E-03
   3    9.998       8.952       7.897       6.832       5.751       4.648       3.517       2.362       1.189      2.6101E-03
   4    9.998       8.957       7.910       6.854       5.785       4.691       3.551       2.383       1.199      2.6317E-03
   5    9.998       8.963       7.922       6.878       5.830       4.761       3.596       2.407       1.209      2.6541E-03
   6    9.998       8.965       7.929       6.894       5.870       4.859       3.637       2.423       1.215      2.6663E-03
   7    9.998       8.963       7.924       6.881       5.833       4.764       3.599       2.409       1.210      2.6565E-03
   8    9.998       8.959       7.914       6.859       5.791       4.698       3.557       2.388       1.201      2.6371E-03
   9    9.998       8.955       7.904       6.841       5.762       4.660       3.528       2.370       1.193      2.6196E-03
  10    9.998       8.953       7.899       6.832       5.748       4.643       3.513       2.361       1.189      2.6099E-03

 HEAD WILL BE SAVED ON UNIT   51 AT END OF TIME STEP   13, STRESS PERIOD    3

 DRAWDOWN WILL BE SAVED ON UNIT   52 AT END OF TIME STEP   13, STRESS PERIOD    3
1
  VOLUMETRIC BUDGET FOR ENTIRE MODEL AT END OF TIME STEP   13, STRESS PERIOD   3
  ------------------------------------------------------------------------------

     CUMULATIVE VOLUMES      L**3       RATES FOR THIS TIME STEP      L**3/T
     ------------------                 ------------------------

           IN:                                      IN:
           ---                                      ---
             STORAGE =         301.7683               STORAGE =          17.8625
       CONSTANT HEAD =           0.0000         CONSTANT HEAD =           0.0000
               WELLS =       10780.0000                 WELLS =          60.0000
     HEAD DEP BOUNDS =      131408.2031       HEAD DEP BOUNDS =        1138.8245

            TOTAL IN =      142489.9688              TOTAL IN =        1216.6870

          OUT:                                     OUT:
          ----                                     ----
             STORAGE =        7251.0122               STORAGE =          13.8212
       CONSTANT HEAD =           0.0000         CONSTANT HEAD =           0.0000
               WELLS =           0.0000                 WELLS =           0.0000
     HEAD DEP BOUNDS =      135236.0469       HEAD DEP BOUNDS =        1202.8177

           TOTAL OUT =      142487.0625             TOTAL OUT =        1216.6389

            IN - OUT =           2.9062              IN - OUT =       4.8096E-02

 PERCENT DISCREPANCY =           0.00     PERCENT DISCREPANCY =           0.00






         TIME SUMMARY AT END OF TIME STEP   13 IN STRESS PERIOD    3
                    SECONDS     MINUTES      HOURS       DAYS        YEARS
                    -----------------------------------------------------------
   TIME STEP LENGTH  86400.      1440.0      24.000      1.0000     2.73785E-03
 STRESS PERIOD TIME 1.12320E+06  18720.      312.00      13.000     3.55921E-02
         TOTAL TIME 9.84960E+06 1.64160E+05  2736.0      114.00     0.31211    
1
 
 SOLVING FOR HEAD 

 OUTPUT CONTROL FOR STRESS PERIOD    3   TIME STEP   14
    SAVE HEAD FOR ALL LAYERS
    SAVE DRAWDOWN FOR ALL LAYERS
    SAVE BUDGET
    PRINT HEAD FOR ALL LAYERS
    PRINT BUDGET
 UBDSV1 SAVING "         STORAGE" ON UNIT  53 AT TIME STEP 14, STRESS PERIOD   3
 UBDSV2 SAVING "   CONSTANT HEAD" ON UNIT  53 AT TIME STEP 14, STRESS PERIOD   3
 UBDSV1 SAVING "FLOW RIGHT FACE " ON UNIT  53 AT TIME STEP 14, STRESS PERIOD   3
 UBDSV1 SAVING "FLOW FRONT FACE " ON UNIT  53 AT TIME STEP 14, STRESS PERIOD   3
 UBDSV1 SAVING "FLOW LOWER FACE " ON UNIT  53 AT TIME STEP 14, STRESS PERIOD   3

 SAVING SATURATED THICKNESS AND FLOW TERMS ON UNIT   54 FOR MT3DMS
 BY THE LINK-MT3DMS PACKAGE V7 AT TIME STEP   14, STRESS PERIOD    3

1
              HEAD IN LAYER   1 AT END OF TIME STEP  14 IN STRESS PERIOD    3
  ---------------------------------------------------------------------------

            1           2           3           4           5           6           7           8           9          10
 ........................................................................................................................
   1    9.998       8.949       7.888       6.813       5.723       4.616       3.490       2.345       1.183      1.5434E-03
   2    9.998       8.952       7.892       6.820       5.734       4.628       3.500       2.353       1.187      1.5483E-03
   3    9.998       8.956       7.902       6.836       5.755       4.653       3.522       2.367       1.194      1.5581E-03
   4    9.998       8.961       7.914       6.858       5.791       4.699       3.557       2.389       1.204      1.5718E-03
   5    9.998       8.967       7.927       6.884       5.839       4.781       3.607       2.415       1.215      1.5862E-03
   6    9.998       8.969       7.933       6.901       5.889       4.972       3.658       2.432       1.221      1.5943E-03
   7    9.998       8.967       7.928       6.886       5.842       4.784       3.610       2.417       1.216      1.5878E-03
   8    9.998       8.963       7.918       6.864       5.797       4.705       3.563       2.394       1.207      1.5750E-03
   9    9.998       8.959       7.908       6.845       5.767       4.665       3.533       2.375       1.198      1.5639E-03
  10    9.998       8.957       7.902       6.835       5.752       4.647       3.518       2.366       1.194      1.5577E-03
1
              HEAD IN LAYER   2 AT END OF TIME STEP  14 IN STRESS PERIOD    3
  ---------------------------------------------------------------------------

            1           2           3           4           5           6           7           8           9          10
 ........................................................................................................................
   1    9.998       8.948       7.886       6.811       5.722       4.615       3.489       2.344       1.182      2.5377E-03
   2    9.998       8.950       7.891       6.819       5.732       4.626       3.499       2.351       1.185      2.5455E-03
   3    9.998       8.954       7.900       6.834       5.754       4.652       3.520       2.365       1.192      2.5608E-03
   4    9.998       8.960       7.912       6.856       5.788       4.696       3.555       2.387       1.202      2.5823E-03
   5    9.998       8.965       7.925       6.882       5.836       4.776       3.603       2.412       1.213      2.6048E-03
   6    9.998       8.967       7.932       6.898       5.884       4.989       3.652       2.428       1.219      2.6173E-03
   7    9.998       8.966       7.927       6.884       5.839       4.779       3.606       2.414       1.214      2.6072E-03
   8    9.998       8.962       7.916       6.862       5.795       4.703       3.561       2.391       1.205      2.5876E-03
   9    9.998       8.958       7.907       6.844       5.765       4.663       3.531       2.373       1.197      2.5701E-03
  10    9.998       8.955       7.901       6.834       5.751       4.646       3.516       2.364       1.192      2.5604E-03
1
              HEAD IN LAYER   3 AT END OF TIME STEP  14 IN STRESS PERIOD    3
  ---------------------------------------------------------------------------

            1           2           3           4           5           6           7           8           9          10
 ........................................................................................................................
   1    9.998       8.947       7.885       6.810       5.721       4.614       3.487       2.342       1.180      2.5880E-03
   2    9.998       8.949       7.890       6.818       5.731       4.625       3.497       2.349       1.184      2.5959E-03
   3    9.998       8.953       7.899       6.833       5.752       4.650       3.519       2.364       1.191      2.6114E-03
   4    9.998       8.959       7.911       6.855       5.786       4.693       3.553       2.385       1.201      2.6331E-03
   5    9.998       8.964       7.924       6.880       5.833       4.768       3.599       2.409       1.211      2.6557E-03
   6    9.998       8.966       7.930       6.896       5.877       4.918       3.645       2.425       1.217      2.6681E-03
   7    9.998       8.965       7.925       6.882       5.835       4.771       3.602       2.411       1.212      2.6581E-03
   8    9.998       8.961       7.915       6.860       5.793       4.700       3.559       2.390       1.203      2.6385E-03
   9    9.998       8.957       7.905       6.843       5.764       4.662       3.530       2.372       1.195      2.6209E-03
  10    9.998       8.954       7.900       6.833       5.750       4.645       3.515       2.362       1.191      2.6112E-03
1
              HEAD IN LAYER   4 AT END OF TIME STEP  14 IN STRESS PERIOD    3
  ---------------------------------------------------------------------------

            1           2           3           4           5           6           7           8           9          10
 ........................................................................................................................
   1    9.998       8.946       7.884       6.810       5.720       4.613       3.486       2.341       1.179      2.5880E-03
   2    9.998       8.948       7.889       6.817       5.730       4.624       3.497       2.348       1.183      2.5959E-03
   3    9.998       8.952       7.898       6.832       5.751       4.649       3.518       2.363       1.190      2.6113E-03
   4    9.998       8.958       7.910       6.854       5.785       4.692       3.551       2.384       1.199      2.6328E-03
   5    9.998       8.963       7.923       6.879       5.830       4.763       3.597       2.408       1.210      2.6552E-03
   6    9.998       8.966       7.929       6.894       5.872       4.876       3.639       2.423       1.215      2.6674E-03
   7    9.998       8.964       7.924       6.881       5.833       4.766       3.600       2.410       1.211      2.6576E-03
   8    9.998       8.960       7.914       6.860       5.792       4.698       3.557       2.388       1.202      2.6383E-03
   9    9.998       8.956       7.905       6.842       5.763       4.661       3.528       2.371       1.194      2.6209E-03
  10    9.998       8.953       7.899       6.832       5.749       4.644       3.514       2.361       1.190      2.6112E-03
1
              HEAD IN LAYER   5 AT END OF TIME STEP  14 IN STRESS PERIOD    3
  ---------------------------------------------------------------------------

            1           2           3           4           5           6           7           8           9          10
 ........................................................................................................................
   1    9.998       8.946       7.884       6.809       5.720       4.612       3.486       2.341       1.178      2.5870E-03
   2    9.998       8.948       7.888       6.817       5.730       4.624       3.496       2.348       1.182      2.5949E-03
   3    9.998       8.952       7.898       6.832       5.751       4.648       3.517       2.362       1.189      2.6103E-03
   4    9.998       8.957       7.910       6.854       5.785       4.691       3.551       2.383       1.199      2.6317E-03
   5    9.998       8.963       7.922       6.878       5.829       4.759       3.595       2.407       1.209      2.6539E-03
   6    9.998       8.965       7.929       6.893       5.869       4.857       3.635       2.422       1.214      2.6660E-03
   7    9.998       8.964       7.924       6.880       5.832       4.763       3.598       2.409       1.210      2.6564E-03
   8    9.998       8.960       7.914       6.859       5.791       4.697       3.557       2.388       1.201      2.6372E-03
   9    9.998       8.955       7.904       6.841       5.763       4.660       3.528       2.370       1.193      2.6199E-03
  10    9.998       8.953       7.899       6.832       5.748       4.644       3.514       2.361       1.189      2.6102E-03

 HEAD WILL BE SAVED ON UNIT   51 AT END OF TIME STEP   14, STRESS PERIOD    3

 DRAWDOWN WILL BE SAVED ON UNIT   52 AT END OF TIME STEP   14, STRESS PERIOD    3
1
  VOLUMETRIC BUDGET FOR ENTIRE MODEL AT END OF TIME STEP   14, STRESS PERIOD   3
  ------------------------------------------------------------------------------

     CUMULATIVE VOLUMES      L**3       RATES FOR THIS TIME STEP      L**3/T
     ------------------                 ------------------------

           IN:                                      IN:
           ---                                      ---
             STORAGE =         319.0338               STORAGE =          17.2654
       CONSTANT HEAD =           0.0000         CONSTANT HEAD =           0.0000
               WELLS =       10840.0000                 WELLS =          60.0000
     HEAD DEP BOUNDS =      132546.9062       HEAD DEP BOUNDS =        1138.7081

            TOTAL IN =      143705.9375              TOTAL IN =        1215.9735

          OUT:                                     OUT:
          ----                                     ----
             STORAGE =        7264.0625               STORAGE =          13.0503
       CONSTANT HEAD =           0.0000         CONSTANT HEAD =           0.0000
               WELLS =           0.0000                 WELLS =           0.0000
     HEAD DEP BOUNDS =      136438.9219       HEAD DEP BOUNDS =        1202.8706

           TOTAL OUT =      143702.9844             TOTAL OUT =        1215.9209

            IN - OUT =           2.9531              IN - OUT =       5.2612E-02

 PERCENT DISCREPANCY =           0.00     PERCENT DISCREPANCY =           0.00






         TIME SUMMARY AT END OF TIME STEP   14 IN STRESS PERIOD    3
                    SECONDS     MINUTES      HOURS       DAYS        YEARS
                    -----------------------------------------------------------
   TIME STEP LENGTH  86400.      1440.0      24.000      1.0000     2.73785E-03
 STRESS PERIOD TIME 1.20960E+06  20160.      336.00      14.000     3.83299E-02
         TOTAL TIME 9.93600E+06 1.65600E+05  2760.0      115.00     0.31485    
1
 
 SOLVING FOR HEAD 

 OUTPUT CONTROL FOR STRESS PERIOD    3   TIME STEP   15
    SAVE HEAD FOR ALL LAYERS
    SAVE DRAWDOWN FOR ALL LAYERS
    SAVE BUDGET
    PRINT HEAD FOR ALL LAYERS
    PRINT BUDGET
 UBDSV1 SAVING "         STORAGE" ON UNIT  53 AT TIME STEP 15, STRESS PERIOD   3
 UBDSV2 SAVING "   CONSTANT HEAD" ON UNIT  53 AT TIME STEP 15, STRESS PERIOD   3
 UBDSV1 SAVING "FLOW RIGHT FACE " ON UNIT  53 AT TIME STEP 15, STRESS PERIOD   3
 UBDSV1 SAVING "FLOW FRONT FACE " ON UNIT  53 AT TIME STEP 15, STRESS PERIOD   3
 UBDSV1 SAVING "FLOW LOWER FACE " ON UNIT  53 AT TIME STEP 15, STRESS PERIOD   3

 SAVING SATURATED THICKNESS AND FLOW TERMS ON UNIT   54 FOR MT3DMS
 BY THE LINK-MT3DMS PACKAGE V7 AT TIME STEP   15, STRESS PERIOD    3

1
              HEAD IN LAYER   1 AT END OF TIME STEP  15 IN STRESS PERIOD    3
  ---------------------------------------------------------------------------

            1           2           3           4           5           6           7           8           9          10
 ........................................................................................................................
   1    9.998       8.950       7.888       6.813       5.724       4.617       3.491       2.346       1.183      1.5435E-03
   2    9.998       8.952       7.893       6.821       5.734       4.628       3.501       2.353       1.187      1.5485E-03
   3    9.998       8.956       7.902       6.836       5.756       4.654       3.522       2.367       1.194      1.5583E-03
   4    9.998       8.961       7.914       6.858       5.790       4.698       3.557       2.389       1.204      1.5718E-03
   5    9.998       8.967       7.927       6.884       5.838       4.779       3.606       2.414       1.215      1.5862E-03
   6    9.998       8.969       7.933       6.900       5.887       4.970       3.657       2.431       1.221      1.5942E-03
   7    9.998       8.968       7.928       6.886       5.841       4.782       3.609       2.416       1.216      1.5877E-03
   8    9.998       8.963       7.918       6.864       5.797       4.705       3.563       2.394       1.207      1.5752E-03
   9    9.998       8.959       7.908       6.845       5.767       4.665       3.533       2.375       1.199      1.5641E-03
  10    9.998       8.957       7.903       6.836       5.752       4.648       3.518       2.366       1.194      1.5579E-03
1
              HEAD IN LAYER   2 AT END OF TIME STEP  15 IN STRESS PERIOD    3
  ---------------------------------------------------------------------------

            1           2           3           4           5           6           7           8           9          10
 ........................................................................................................................
   1    9.998       8.948       7.886       6.812       5.722       4.615       3.489       2.344       1.182      2.5380E-03
   2    9.998       8.950       7.891       6.819       5.733       4.627       3.499       2.351       1.185      2.5457E-03
   3    9.998       8.954       7.900       6.835       5.754       4.652       3.520       2.366       1.192      2.5610E-03
   4    9.998       8.960       7.913       6.857       5.788       4.695       3.555       2.387       1.202      2.5824E-03
   5    9.998       8.965       7.925       6.881       5.835       4.774       3.602       2.412       1.213      2.6047E-03
   6    9.998       8.968       7.932       6.898       5.883       4.987       3.651       2.428       1.218      2.6170E-03
   7    9.998       8.966       7.927       6.884       5.838       4.777       3.605       2.414       1.214      2.6071E-03
   8    9.998       8.962       7.916       6.862       5.795       4.702       3.561       2.392       1.205      2.5877E-03
   9    9.998       8.958       7.907       6.844       5.765       4.664       3.531       2.374       1.197      2.5704E-03
  10    9.998       8.955       7.901       6.834       5.751       4.646       3.517       2.364       1.192      2.5607E-03
1
              HEAD IN LAYER   3 AT END OF TIME STEP  15 IN STRESS PERIOD    3
  ---------------------------------------------------------------------------

            1           2           3           4           5           6           7           8           9          10
 ........................................................................................................................
   1    9.998       8.947       7.885       6.811       5.721       4.614       3.488       2.343       1.180      2.5883E-03
   2    9.998       8.949       7.890       6.818       5.731       4.625       3.498       2.350       1.184      2.5962E-03
   3    9.998       8.953       7.899       6.833       5.753       4.650       3.519       2.364       1.191      2.6116E-03
   4    9.998       8.959       7.911       6.855       5.786       4.693       3.553       2.385       1.201      2.6331E-03
   5    9.998       8.964       7.924       6.880       5.832       4.767       3.599       2.409       1.211      2.6555E-03
   6    9.998       8.966       7.930       6.895       5.876       4.916       3.643       2.425       1.216      2.6678E-03
   7    9.998       8.965       7.925       6.882       5.835       4.770       3.601       2.411       1.212      2.6580E-03
   8    9.998       8.961       7.915       6.861       5.793       4.700       3.559       2.390       1.203      2.6386E-03
   9    9.998       8.957       7.906       6.843       5.764       4.662       3.530       2.372       1.195      2.6212E-03
  10    9.998       8.954       7.900       6.833       5.750       4.645       3.515       2.363       1.191      2.6115E-03
1
              HEAD IN LAYER   4 AT END OF TIME STEP  15 IN STRESS PERIOD    3
  ---------------------------------------------------------------------------

            1           2           3           4           5           6           7           8           9          10
 ........................................................................................................................
   1    9.998       8.946       7.884       6.810       5.720       4.613       3.487       2.342       1.179      2.5883E-03
   2    9.998       8.948       7.889       6.817       5.731       4.625       3.497       2.349       1.183      2.5962E-03
   3    9.998       8.953       7.898       6.832       5.752       4.649       3.518       2.363       1.190      2.6115E-03
   4    9.998       8.958       7.910       6.854       5.785       4.691       3.551       2.384       1.199      2.6329E-03
   5    9.998       8.963       7.923       6.878       5.830       4.761       3.596       2.407       1.209      2.6550E-03
   6    9.998       8.966       7.929       6.894       5.871       4.874       3.637       2.423       1.215      2.6671E-03
   7    9.998       8.964       7.924       6.881       5.833       4.765       3.599       2.409       1.211      2.6575E-03
   8    9.998       8.960       7.914       6.860       5.792       4.698       3.557       2.388       1.202      2.6384E-03
   9    9.998       8.956       7.905       6.842       5.763       4.661       3.529       2.371       1.194      2.6211E-03
  10    9.998       8.954       7.899       6.833       5.749       4.644       3.515       2.362       1.190      2.6115E-03
1
              HEAD IN LAYER   5 AT END OF TIME STEP  15 IN STRESS PERIOD    3
  ---------------------------------------------------------------------------

            1           2           3           4           5           6           7           8           9          10
 ........................................................................................................................
   1    9.998       8.946       7.884       6.810       5.720       4.613       3.486       2.341       1.179      2.5873E-03
   2    9.998       8.948       7.889       6.817       5.730       4.624       3.496       2.348       1.182      2.5951E-03
   3    9.998       8.952       7.898       6.832       5.751       4.648       3.517       2.362       1.189      2.6105E-03
   4    9.998       8.958       7.910       6.854       5.784       4.690       3.550       2.383       1.199      2.6317E-03
   5    9.998       8.963       7.922       6.878       5.828       4.758       3.595       2.407       1.209      2.6537E-03
   6    9.998       8.965       7.929       6.893       5.868       4.855       3.634       2.422       1.214      2.6657E-03
   7    9.998       8.964       7.924       6.880       5.831       4.761       3.597       2.409       1.210      2.6562E-03
   8    9.998       8.960       7.914       6.859       5.791       4.697       3.556       2.388       1.201      2.6372E-03
   9    9.998       8.956       7.905       6.842       5.763       4.661       3.528       2.370       1.194      2.6201E-03
  10    9.998       8.953       7.899       6.832       5.749       4.644       3.514       2.361       1.189      2.6105E-03

 HEAD WILL BE SAVED ON UNIT   51 AT END OF TIME STEP   15, STRESS PERIOD    3

 DRAWDOWN WILL BE SAVED ON UNIT   52 AT END OF TIME STEP   15, STRESS PERIOD    3
1
  VOLUMETRIC BUDGET FOR ENTIRE MODEL AT END OF TIME STEP   15, STRESS PERIOD   3
  ------------------------------------------------------------------------------

     CUMULATIVE VOLUMES      L**3       RATES FOR THIS TIME STEP      L**3/T
     ------------------                 ------------------------

           IN:                                      IN:
           ---                                      ---
             STORAGE =         335.7111               STORAGE =          16.6773
       CONSTANT HEAD =           0.0000         CONSTANT HEAD =           0.0000
               WELLS =       10900.0000                 WELLS =          60.0000
     HEAD DEP BOUNDS =      133685.5000       HEAD DEP BOUNDS =        1138.5909

            TOTAL IN =      144921.2188              TOTAL IN =        1215.2683

          OUT:                                     OUT:
          ----                                     ----
             STORAGE =        7276.3677               STORAGE =          12.3049
       CONSTANT HEAD =           0.0000         CONSTANT HEAD =           0.0000
               WELLS =           0.0000                 WELLS =           0.0000
     HEAD DEP BOUNDS =      137641.8438       HEAD DEP BOUNDS =        1202.9148

           TOTAL OUT =      144918.2188             TOTAL OUT =        1215.2197

            IN - OUT =           3.0000              IN - OUT =       4.8584E-02

 PERCENT DISCREPANCY =           0.00     PERCENT DISCREPANCY =           0.00






         TIME SUMMARY AT END OF TIME STEP   15 IN STRESS PERIOD    3
                    SECONDS     MINUTES      HOURS       DAYS        YEARS
                    -----------------------------------------------------------
   TIME STEP LENGTH  86400.      1440.0      24.000      1.0000     2.73785E-03
 STRESS PERIOD TIME 1.29600E+06  21600.      360.00      15.000     4.10678E-02
         TOTAL TIME 1.00224E+07 1.67040E+05  2784.0      116.00     0.31759    
1
 
 SOLVING FOR HEAD 

 OUTPUT CONTROL FOR STRESS PERIOD    3   TIME STEP   16
    SAVE HEAD FOR ALL LAYERS
    SAVE DRAWDOWN FOR ALL LAYERS
    SAVE BUDGET
    PRINT HEAD FOR ALL LAYERS
    PRINT BUDGET
 UBDSV1 SAVING "         STORAGE" ON UNIT  53 AT TIME STEP 16, STRESS PERIOD   3
 UBDSV2 SAVING "   CONSTANT HEAD" ON UNIT  53 AT TIME STEP 16, STRESS PERIOD   3
 UBDSV1 SAVING "FLOW RIGHT FACE " ON UNIT  53 AT TIME STEP 16, STRESS PERIOD   3
 UBDSV1 SAVING "FLOW FRONT FACE " ON UNIT  53 AT TIME STEP 16, STRESS PERIOD   3
 UBDSV1 SAVING "FLOW LOWER FACE " ON UNIT  53 AT TIME STEP 16, STRESS PERIOD   3

 SAVING SATURATED THICKNESS AND FLOW TERMS ON UNIT   54 FOR MT3DMS
 BY THE LINK-MT3DMS PACKAGE V7 AT TIME STEP   16, STRESS PERIOD    3

1
              HEAD IN LAYER   1 AT END OF TIME STEP  16 IN STRESS PERIOD    3
  ---------------------------------------------------------------------------

            1           2           3           4           5           6           7           8           9          10
 ........................................................................................................................
   1    9.998       8.950       7.888       6.814       5.724       4.617       3.491       2.346       1.184      1.5438E-03
   2    9.998       8.952       7.893       6.821       5.734       4.629       3.501       2.353       1.187      1.5487E-03
   3    9.998       8.956       7.902       6.836       5.756       4.654       3.522       2.368       1.194      1.5584E-03
   4    9.998       8.962       7.914       6.858       5.790       4.698       3.557       2.389       1.204      1.5719E-03
   5    9.998       8.967       7.927       6.883       5.838       4.778       3.605       2.414       1.215      1.5861E-03
   6    9.998       8.969       7.933       6.900       5.886       4.967       3.655       2.431       1.221      1.5941E-03
   7    9.998       8.968       7.929       6.886       5.840       4.781       3.608       2.416       1.216      1.5877E-03
   8    9.998       8.964       7.918       6.864       5.797       4.705       3.563       2.394       1.207      1.5753E-03
   9    9.998       8.959       7.909       6.846       5.767       4.666       3.533       2.376       1.199      1.5643E-03
  10    9.998       8.957       7.903       6.836       5.753       4.648       3.519       2.366       1.194      1.5582E-03
1
              HEAD IN LAYER   2 AT END OF TIME STEP  16 IN STRESS PERIOD    3
  ---------------------------------------------------------------------------

            1           2           3           4           5           6           7           8           9          10
 ........................................................................................................................
   1    9.998       8.948       7.887       6.812       5.723       4.616       3.489       2.344       1.182      2.5383E-03
   2    9.998       8.950       7.891       6.820       5.733       4.627       3.499       2.351       1.185      2.5460E-03
   3    9.998       8.955       7.900       6.835       5.754       4.652       3.521       2.366       1.193      2.5613E-03
   4    9.998       8.960       7.913       6.857       5.788       4.695       3.555       2.387       1.202      2.5825E-03
   5    9.998       8.965       7.925       6.881       5.834       4.773       3.601       2.411       1.213      2.6046E-03
   6    9.998       8.968       7.932       6.897       5.881       4.985       3.650       2.427       1.218      2.6167E-03
   7    9.998       8.966       7.927       6.884       5.837       4.776       3.604       2.413       1.214      2.6070E-03
   8    9.998       8.962       7.917       6.862       5.794       4.702       3.561       2.391       1.205      2.5878E-03
   9    9.998       8.958       7.907       6.844       5.766       4.664       3.531       2.374       1.197      2.5706E-03
  10    9.998       8.956       7.902       6.835       5.751       4.647       3.517       2.365       1.192      2.5611E-03
1
              HEAD IN LAYER   3 AT END OF TIME STEP  16 IN STRESS PERIOD    3
  ---------------------------------------------------------------------------

            1           2           3           4           5           6           7           8           9          10
 ........................................................................................................................
   1    9.998       8.947       7.885       6.811       5.722       4.614       3.488       2.343       1.180      2.5886E-03
   2    9.998       8.949       7.890       6.818       5.732       4.626       3.498       2.350       1.184      2.5964E-03
   3    9.998       8.953       7.899       6.833       5.753       4.650       3.519       2.364       1.191      2.6118E-03
   4    9.998       8.959       7.911       6.855       5.786       4.693       3.552       2.385       1.201      2.6332E-03
   5    9.998       8.964       7.924       6.879       5.831       4.766       3.598       2.409       1.211      2.6553E-03
   6    9.998       8.966       7.930       6.895       5.875       4.914       3.642       2.424       1.216      2.6675E-03
   7    9.998       8.965       7.925       6.882       5.834       4.769       3.601       2.411       1.212      2.6578E-03
   8    9.998       8.961       7.915       6.861       5.793       4.699       3.559       2.390       1.203      2.6387E-03
   9    9.998       8.957       7.906       6.843       5.764       4.662       3.530       2.372       1.195      2.6214E-03
  10    9.998       8.954       7.900       6.834       5.750       4.645       3.516       2.363       1.191      2.6118E-03
1
              HEAD IN LAYER   4 AT END OF TIME STEP  16 IN STRESS PERIOD    3
  ---------------------------------------------------------------------------

            1           2           3           4           5           6           7           8           9          10
 ........................................................................................................................
   1    9.998       8.946       7.885       6.810       5.721       4.614       3.487       2.342       1.179      2.5886E-03
   2    9.998       8.948       7.889       6.818       5.731       4.625       3.497       2.349       1.183      2.5964E-03
   3    9.998       8.953       7.898       6.833       5.752       4.649       3.518       2.363       1.190      2.6117E-03
   4    9.998       8.958       7.910       6.854       5.785       4.691       3.551       2.384       1.199      2.6329E-03
   5    9.998       8.963       7.923       6.878       5.829       4.760       3.595       2.407       1.209      2.6548E-03
   6    9.998       8.966       7.929       6.893       5.869       4.873       3.636       2.422       1.215      2.6668E-03
   7    9.998       8.964       7.924       6.881       5.832       4.763       3.598       2.409       1.211      2.6573E-03
   8    9.998       8.960       7.914       6.860       5.791       4.698       3.557       2.388       1.202      2.6384E-03
   9    9.998       8.956       7.905       6.842       5.763       4.661       3.529       2.371       1.194      2.6213E-03
  10    9.998       8.954       7.900       6.833       5.749       4.645       3.515       2.362       1.190      2.6118E-03
1
              HEAD IN LAYER   5 AT END OF TIME STEP  16 IN STRESS PERIOD    3
  ---------------------------------------------------------------------------

            1           2           3           4           5           6           7           8           9          10
 ........................................................................................................................
   1    9.998       8.946       7.884       6.810       5.720       4.613       3.487       2.341       1.179      2.5876E-03
   2    9.998       8.948       7.889       6.817       5.730       4.624       3.497       2.348       1.182      2.5954E-03
   3    9.998       8.952       7.898       6.832       5.751       4.649       3.517       2.362       1.189      2.6106E-03
   4    9.998       8.958       7.910       6.854       5.784       4.690       3.550       2.383       1.199      2.6317E-03
   5    9.998       8.963       7.922       6.877       5.828       4.757       3.594       2.406       1.209      2.6535E-03
   6    9.998       8.965       7.929       6.893       5.867       4.854       3.633       2.421       1.214      2.6654E-03
   7    9.998       8.964       7.924       6.880       5.831       4.760       3.597       2.408       1.210      2.6560E-03
   8    9.998       8.960       7.914       6.859       5.791       4.697       3.556       2.388       1.201      2.6372E-03
   9    9.998       8.956       7.905       6.842       5.763       4.661       3.528       2.371       1.194      2.6203E-03
  10    9.998       8.953       7.899       6.833       5.749       4.644       3.514       2.361       1.189      2.6108E-03

 HEAD WILL BE SAVED ON UNIT   51 AT END OF TIME STEP   16, STRESS PERIOD    3

 DRAWDOWN WILL BE SAVED ON UNIT   52 AT END OF TIME STEP   16, STRESS PERIOD    3
1
  VOLUMETRIC BUDGET FOR ENTIRE MODEL AT END OF TIME STEP   16, STRESS PERIOD   3
  ------------------------------------------------------------------------------

     CUMULATIVE VOLUMES      L**3       RATES FOR THIS TIME STEP      L**3/T
     ------------------                 ------------------------

           IN:                                      IN:
           ---                                      ---
             STORAGE =         351.8423               STORAGE =          16.1312
       CONSTANT HEAD =           0.0000         CONSTANT HEAD =           0.0000
               WELLS =       10960.0000                 WELLS =          60.0000
     HEAD DEP BOUNDS =      134823.9844       HEAD DEP BOUNDS =        1138.4797

            TOTAL IN =      146135.8281              TOTAL IN =        1214.6110

          OUT:                                     OUT:
          ----                                     ----
             STORAGE =        7287.9824               STORAGE =          11.6146
       CONSTANT HEAD =           0.0000         CONSTANT HEAD =           0.0000
               WELLS =           0.0000                 WELLS =           0.0000
     HEAD DEP BOUNDS =      138844.7969       HEAD DEP BOUNDS =        1202.9532

           TOTAL OUT =      146132.7812             TOTAL OUT =        1214.5679

            IN - OUT =           3.0469              IN - OUT =       4.3091E-02

 PERCENT DISCREPANCY =           0.00     PERCENT DISCREPANCY =           0.00






         TIME SUMMARY AT END OF TIME STEP   16 IN STRESS PERIOD    3
                    SECONDS     MINUTES      HOURS       DAYS        YEARS
                    -----------------------------------------------------------
   TIME STEP LENGTH  86400.      1440.0      24.000      1.0000     2.73785E-03
 STRESS PERIOD TIME 1.38240E+06  23040.      384.00      16.000     4.38056E-02
         TOTAL TIME 1.01088E+07 1.68480E+05  2808.0      117.00     0.32033    
1
 
 SOLVING FOR HEAD 

 OUTPUT CONTROL FOR STRESS PERIOD    3   TIME STEP   17
    SAVE HEAD FOR ALL LAYERS
    SAVE DRAWDOWN FOR ALL LAYERS
    SAVE BUDGET
    PRINT HEAD FOR ALL LAYERS
    PRINT BUDGET
 UBDSV1 SAVING "         STORAGE" ON UNIT  53 AT TIME STEP 17, STRESS PERIOD   3
 UBDSV2 SAVING "   CONSTANT HEAD" ON UNIT  53 AT TIME STEP 17, STRESS PERIOD   3
 UBDSV1 SAVING "FLOW RIGHT FACE " ON UNIT  53 AT TIME STEP 17, STRESS PERIOD   3
 UBDSV1 SAVING "FLOW FRONT FACE " ON UNIT  53 AT TIME STEP 17, STRESS PERIOD   3
 UBDSV1 SAVING "FLOW LOWER FACE " ON UNIT  53 AT TIME STEP 17, STRESS PERIOD   3

 SAVING SATURATED THICKNESS AND FLOW TERMS ON UNIT   54 FOR MT3DMS
 BY THE LINK-MT3DMS PACKAGE V7 AT TIME STEP   17, STRESS PERIOD    3

1
              HEAD IN LAYER   1 AT END OF TIME STEP  17 IN STRESS PERIOD    3
  ---------------------------------------------------------------------------

            1           2           3           4           5           6           7           8           9          10
 ........................................................................................................................
   1    9.998       8.950       7.888       6.814       5.724       4.617       3.491       2.346       1.184      1.5440E-03
   2    9.998       8.952       7.893       6.821       5.735       4.629       3.501       2.353       1.187      1.5489E-03
   3    9.998       8.956       7.902       6.837       5.756       4.654       3.523       2.368       1.195      1.5585E-03
   4    9.998       8.962       7.914       6.858       5.790       4.697       3.557       2.389       1.204      1.5719E-03
   5    9.998       8.967       7.927       6.883       5.837       4.777       3.604       2.414       1.215      1.5860E-03
   6    9.998       8.969       7.933       6.899       5.885       4.965       3.654       2.430       1.221      1.5938E-03
   7    9.998       8.968       7.929       6.886       5.840       4.780       3.607       2.416       1.216      1.5876E-03
   8    9.998       8.964       7.918       6.864       5.797       4.704       3.563       2.394       1.207      1.5753E-03
   9    9.998       8.960       7.909       6.846       5.767       4.666       3.533       2.376       1.199      1.5644E-03
  10    9.998       8.957       7.903       6.836       5.753       4.648       3.519       2.366       1.194      1.5584E-03
1
              HEAD IN LAYER   2 AT END OF TIME STEP  17 IN STRESS PERIOD    3
  ---------------------------------------------------------------------------

            1           2           3           4           5           6           7           8           9          10
 ........................................................................................................................
   1    9.998       8.948       7.887       6.812       5.723       4.616       3.490       2.345       1.182      2.5386E-03
   2    9.998       8.951       7.892       6.820       5.733       4.627       3.500       2.352       1.186      2.5463E-03
   3    9.998       8.955       7.901       6.835       5.754       4.652       3.521       2.366       1.193      2.5614E-03
   4    9.998       8.960       7.913       6.857       5.788       4.695       3.554       2.387       1.202      2.5825E-03
   5    9.998       8.965       7.925       6.881       5.833       4.772       3.601       2.411       1.213      2.6044E-03
   6    9.998       8.968       7.932       6.897       5.880       4.983       3.648       2.427       1.218      2.6165E-03
   7    9.998       8.966       7.927       6.883       5.836       4.775       3.603       2.413       1.214      2.6068E-03
   8    9.998       8.962       7.917       6.862       5.794       4.702       3.561       2.391       1.205      2.5879E-03
   9    9.998       8.958       7.907       6.844       5.766       4.664       3.532       2.374       1.197      2.5709E-03
  10    9.998       8.956       7.902       6.835       5.752       4.647       3.517       2.365       1.193      2.5614E-03
1
              HEAD IN LAYER   3 AT END OF TIME STEP  17 IN STRESS PERIOD    3
  ---------------------------------------------------------------------------

            1           2           3           4           5           6           7           8           9          10
 ........................................................................................................................
   1    9.998       8.947       7.886       6.811       5.722       4.615       3.488       2.343       1.180      2.5889E-03
   2    9.998       8.949       7.890       6.819       5.732       4.626       3.498       2.350       1.184      2.5967E-03
   3    9.998       8.953       7.899       6.834       5.753       4.650       3.519       2.364       1.191      2.6120E-03
   4    9.998       8.959       7.911       6.855       5.786       4.692       3.552       2.385       1.201      2.6332E-03
   5    9.998       8.964       7.924       6.879       5.830       4.765       3.597       2.408       1.211      2.6551E-03
   6    9.998       8.966       7.930       6.895       5.874       4.912       3.641       2.424       1.216      2.6672E-03
   7    9.998       8.965       7.925       6.882       5.833       4.768       3.600       2.411       1.212      2.6576E-03
   8    9.998       8.961       7.915       6.861       5.792       4.699       3.558       2.389       1.203      2.6387E-03
   9    9.998       8.957       7.906       6.843       5.764       4.662       3.530       2.372       1.195      2.6216E-03
  10    9.998       8.955       7.901       6.834       5.751       4.646       3.516       2.363       1.191      2.6121E-03
1
              HEAD IN LAYER   4 AT END OF TIME STEP  17 IN STRESS PERIOD    3
  ---------------------------------------------------------------------------

            1           2           3           4           5           6           7           8           9          10
 ........................................................................................................................
   1    9.998       8.946       7.885       6.811       5.721       4.614       3.487       2.342       1.179      2.5889E-03
   2    9.998       8.949       7.890       6.818       5.731       4.625       3.497       2.349       1.183      2.5967E-03
   3    9.998       8.953       7.899       6.833       5.752       4.649       3.518       2.363       1.190      2.6119E-03
   4    9.998       8.958       7.911       6.854       5.785       4.690       3.551       2.383       1.199      2.6329E-03
   5    9.998       8.963       7.923       6.878       5.828       4.759       3.594       2.407       1.209      2.6546E-03
   6    9.998       8.966       7.929       6.893       5.868       4.871       3.635       2.422       1.215      2.6664E-03
   7    9.998       8.964       7.924       6.880       5.831       4.762       3.597       2.409       1.210      2.6571E-03
   8    9.998       8.960       7.915       6.860       5.791       4.697       3.557       2.388       1.202      2.6384E-03
   9    9.998       8.956       7.905       6.842       5.763       4.661       3.529       2.371       1.194      2.6215E-03
  10    9.998       8.954       7.900       6.833       5.750       4.645       3.515       2.362       1.190      2.6121E-03
1
              HEAD IN LAYER   5 AT END OF TIME STEP  17 IN STRESS PERIOD    3
  ---------------------------------------------------------------------------

            1           2           3           4           5           6           7           8           9          10
 ........................................................................................................................
   1    9.998       8.946       7.884       6.810       5.721       4.614       3.487       2.341       1.179      2.5879E-03
   2    9.998       8.948       7.889       6.818       5.731       4.625       3.497       2.348       1.182      2.5956E-03
   3    9.998       8.952       7.898       6.832       5.751       4.649       3.517       2.362       1.189      2.6108E-03
   4    9.998       8.958       7.910       6.854       5.784       4.689       3.550       2.383       1.199      2.6317E-03
   5    9.998       8.963       7.922       6.877       5.827       4.756       3.593       2.406       1.209      2.6533E-03
   6    9.998       8.965       7.929       6.892       5.866       4.852       3.632       2.421       1.214      2.6650E-03
   7    9.998       8.964       7.924       6.880       5.830       4.759       3.596       2.408       1.210      2.6558E-03
   8    9.998       8.960       7.914       6.859       5.791       4.696       3.556       2.387       1.201      2.6373E-03
   9    9.998       8.956       7.905       6.842       5.763       4.661       3.528       2.371       1.194      2.6205E-03
  10    9.998       8.954       7.900       6.833       5.749       4.644       3.515       2.362       1.189      2.6111E-03

 HEAD WILL BE SAVED ON UNIT   51 AT END OF TIME STEP   17, STRESS PERIOD    3

 DRAWDOWN WILL BE SAVED ON UNIT   52 AT END OF TIME STEP   17, STRESS PERIOD    3
1
  VOLUMETRIC BUDGET FOR ENTIRE MODEL AT END OF TIME STEP   17, STRESS PERIOD   3
  ------------------------------------------------------------------------------

     CUMULATIVE VOLUMES      L**3       RATES FOR THIS TIME STEP      L**3/T
     ------------------                 ------------------------

           IN:                                      IN:
           ---                                      ---
             STORAGE =         367.4416               STORAGE =          15.5993
       CONSTANT HEAD =           0.0000         CONSTANT HEAD =           0.0000
               WELLS =       11020.0000                 WELLS =          60.0000
     HEAD DEP BOUNDS =      135962.3594       HEAD DEP BOUNDS =        1138.3817

            TOTAL IN =      147349.7969              TOTAL IN =        1213.9811

          OUT:                                     OUT:
          ----                                     ----
             STORAGE =        7298.9302               STORAGE =          10.9478
       CONSTANT HEAD =           0.0000         CONSTANT HEAD =           0.0000
               WELLS =           0.0000                 WELLS =           0.0000
     HEAD DEP BOUNDS =      140047.7812       HEAD DEP BOUNDS =        1202.9813

           TOTAL OUT =      147346.7188             TOTAL OUT =        1213.9291

            IN - OUT =           3.0781              IN - OUT =       5.2002E-02

 PERCENT DISCREPANCY =           0.00     PERCENT DISCREPANCY =           0.00






         TIME SUMMARY AT END OF TIME STEP   17 IN STRESS PERIOD    3
                    SECONDS     MINUTES      HOURS       DAYS        YEARS
                    -----------------------------------------------------------
   TIME STEP LENGTH  86400.      1440.0      24.000      1.0000     2.73785E-03
 STRESS PERIOD TIME 1.46880E+06  24480.      408.00      17.000     4.65435E-02
         TOTAL TIME 1.01952E+07 1.69920E+05  2832.0      118.00     0.32307    
1
 
 SOLVING FOR HEAD 

 OUTPUT CONTROL FOR STRESS PERIOD    3   TIME STEP   18
    SAVE HEAD FOR ALL LAYERS
    SAVE DRAWDOWN FOR ALL LAYERS
    SAVE BUDGET
    PRINT HEAD FOR ALL LAYERS
    PRINT BUDGET
 UBDSV1 SAVING "         STORAGE" ON UNIT  53 AT TIME STEP 18, STRESS PERIOD   3
 UBDSV2 SAVING "   CONSTANT HEAD" ON UNIT  53 AT TIME STEP 18, STRESS PERIOD   3
 UBDSV1 SAVING "FLOW RIGHT FACE " ON UNIT  53 AT TIME STEP 18, STRESS PERIOD   3
 UBDSV1 SAVING "FLOW FRONT FACE " ON UNIT  53 AT TIME STEP 18, STRESS PERIOD   3
 UBDSV1 SAVING "FLOW LOWER FACE " ON UNIT  53 AT TIME STEP 18, STRESS PERIOD   3

 SAVING SATURATED THICKNESS AND FLOW TERMS ON UNIT   54 FOR MT3DMS
 BY THE LINK-MT3DMS PACKAGE V7 AT TIME STEP   18, STRESS PERIOD    3

1
              HEAD IN LAYER   1 AT END OF TIME STEP  18 IN STRESS PERIOD    3
  ---------------------------------------------------------------------------

            1           2           3           4           5           6           7           8           9          10
 ........................................................................................................................
   1    9.998       8.950       7.889       6.814       5.725       4.618       3.492       2.346       1.184      1.5442E-03
   2    9.998       8.952       7.893       6.822       5.735       4.629       3.502       2.354       1.188      1.5490E-03
   3    9.998       8.956       7.902       6.837       5.756       4.654       3.523       2.368       1.195      1.5586E-03
   4    9.998       8.962       7.915       6.858       5.790       4.697       3.557       2.389       1.204      1.5720E-03
   5    9.998       8.967       7.927       6.883       5.836       4.775       3.604       2.413       1.215      1.5860E-03
   6    9.998       8.969       7.933       6.899       5.883       4.963       3.652       2.430       1.220      1.5937E-03
   7    9.998       8.968       7.929       6.885       5.839       4.778       3.606       2.415       1.216      1.5875E-03
   8    9.998       8.964       7.918       6.864       5.796       4.704       3.563       2.394       1.207      1.5754E-03
   9    9.998       8.960       7.909       6.846       5.768       4.666       3.534       2.376       1.199      1.5646E-03
  10    9.998       8.957       7.904       6.837       5.753       4.649       3.519       2.367       1.195      1.5586E-03
1
              HEAD IN LAYER   2 AT END OF TIME STEP  18 IN STRESS PERIOD    3
  ---------------------------------------------------------------------------

            1           2           3           4           5           6           7           8           9          10
 ........................................................................................................................
   1    9.998       8.948       7.887       6.813       5.723       4.616       3.490       2.345       1.182      2.5389E-03
   2    9.998       8.951       7.892       6.820       5.733       4.628       3.500       2.352       1.186      2.5466E-03
   3    9.998       8.955       7.901       6.835       5.754       4.652       3.521       2.366       1.193      2.5616E-03
   4    9.998       8.960       7.913       6.857       5.788       4.694       3.554       2.387       1.202      2.5825E-03
   5    9.998       8.965       7.925       6.881       5.833       4.771       3.600       2.411       1.213      2.6042E-03
   6    9.998       8.968       7.931       6.896       5.879       4.981       3.647       2.426       1.218      2.6162E-03
   7    9.998       8.966       7.927       6.883       5.836       4.774       3.603       2.413       1.214      2.6067E-03
   8    9.998       8.962       7.917       6.862       5.794       4.701       3.560       2.391       1.205      2.5879E-03
   9    9.998       8.958       7.907       6.845       5.766       4.664       3.532       2.374       1.197      2.5711E-03
  10    9.998       8.956       7.902       6.835       5.752       4.647       3.518       2.365       1.193      2.5617E-03
1
              HEAD IN LAYER   3 AT END OF TIME STEP  18 IN STRESS PERIOD    3
  ---------------------------------------------------------------------------

            1           2           3           4           5           6           7           8           9          10
 ........................................................................................................................
   1    9.998       8.947       7.886       6.812       5.722       4.615       3.489       2.343       1.181      2.5892E-03
   2    9.998       8.949       7.891       6.819       5.732       4.626       3.498       2.350       1.184      2.5970E-03
   3    9.998       8.954       7.900       6.834       5.753       4.650       3.519       2.364       1.191      2.6121E-03
   4    9.998       8.959       7.912       6.855       5.786       4.692       3.552       2.385       1.201      2.6332E-03
   5    9.998       8.964       7.924       6.879       5.830       4.764       3.596       2.408       1.211      2.6549E-03
   6    9.998       8.966       7.930       6.894       5.873       4.911       3.640       2.423       1.216      2.6668E-03
   7    9.998       8.965       7.925       6.881       5.833       4.767       3.599       2.410       1.212      2.6574E-03
   8    9.998       8.961       7.916       6.861       5.792       4.699       3.558       2.389       1.203      2.6387E-03
   9    9.998       8.957       7.906       6.843       5.765       4.662       3.530       2.372       1.195      2.6218E-03
  10    9.998       8.955       7.901       6.834       5.751       4.646       3.516       2.363       1.191      2.6124E-03
1
              HEAD IN LAYER   4 AT END OF TIME STEP  18 IN STRESS PERIOD    3
  ---------------------------------------------------------------------------

            1           2           3           4           5           6           7           8           9          10
 ........................................................................................................................
   1    9.998       8.946       7.885       6.811       5.721       4.614       3.488       2.342       1.180      2.5892E-03
   2    9.998       8.949       7.890       6.818       5.731       4.625       3.497       2.349       1.183      2.5969E-03
   3    9.998       8.953       7.899       6.833       5.752       4.649       3.518       2.363       1.190      2.6120E-03
   4    9.998       8.958       7.911       6.854       5.784       4.690       3.550       2.383       1.199      2.6328E-03
   5    9.998       8.963       7.923       6.877       5.827       4.758       3.594       2.406       1.209      2.6543E-03
   6    9.998       8.966       7.929       6.893       5.868       4.870       3.634       2.421       1.215      2.6661E-03
   7    9.998       8.964       7.924       6.880       5.831       4.762       3.597       2.408       1.210      2.6569E-03
   8    9.998       8.960       7.915       6.860       5.791       4.697       3.557       2.388       1.202      2.6384E-03
   9    9.998       8.956       7.905       6.843       5.764       4.661       3.529       2.371       1.194      2.6217E-03
  10    9.998       8.954       7.900       6.833       5.750       4.645       3.515       2.362       1.190      2.6124E-03
1
              HEAD IN LAYER   5 AT END OF TIME STEP  18 IN STRESS PERIOD    3
  ---------------------------------------------------------------------------

            1           2           3           4           5           6           7           8           9          10
 ........................................................................................................................
   1    9.998       8.946       7.885       6.810       5.721       4.614       3.487       2.342       1.179      2.5882E-03
   2    9.998       8.948       7.889       6.818       5.731       4.625       3.497       2.349       1.183      2.5959E-03
   3    9.998       8.952       7.898       6.833       5.751       4.649       3.517       2.362       1.189      2.6109E-03
   4    9.998       8.958       7.910       6.853       5.784       4.689       3.549       2.383       1.199      2.6316E-03
   5    9.998       8.963       7.922       6.877       5.826       4.755       3.592       2.405       1.209      2.6530E-03
   6    9.998       8.965       7.928       6.892       5.865       4.851       3.631       2.420       1.214      2.6647E-03
   7    9.998       8.964       7.924       6.879       5.829       4.759       3.595       2.408       1.210      2.6556E-03
   8    9.998       8.960       7.914       6.859       5.790       4.696       3.556       2.387       1.201      2.6373E-03
   9    9.998       8.956       7.905       6.842       5.763       4.661       3.528       2.371       1.194      2.6207E-03
  10    9.998       8.954       7.900       6.833       5.750       4.645       3.515       2.362       1.190      2.6114E-03

 HEAD WILL BE SAVED ON UNIT   51 AT END OF TIME STEP   18, STRESS PERIOD    3

 DRAWDOWN WILL BE SAVED ON UNIT   52 AT END OF TIME STEP   18, STRESS PERIOD    3
1
  VOLUMETRIC BUDGET FOR ENTIRE MODEL AT END OF TIME STEP   18, STRESS PERIOD   3
  ------------------------------------------------------------------------------

     CUMULATIVE VOLUMES      L**3       RATES FOR THIS TIME STEP      L**3/T
     ------------------                 ------------------------

           IN:                                      IN:
           ---                                      ---
             STORAGE =         382.5367               STORAGE =          15.0951
       CONSTANT HEAD =           0.0000         CONSTANT HEAD =           0.0000
               WELLS =       11080.0000                 WELLS =          60.0000
     HEAD DEP BOUNDS =      137100.6562       HEAD DEP BOUNDS =        1138.2894

            TOTAL IN =      148563.1875              TOTAL IN =        1213.3845

          OUT:                                     OUT:
          ----                                     ----
             STORAGE =        7309.2612               STORAGE =          10.3309
       CONSTANT HEAD =           0.0000         CONSTANT HEAD =           0.0000
               WELLS =           0.0000                 WELLS =           0.0000
     HEAD DEP BOUNDS =      141250.7812       HEAD DEP BOUNDS =        1203.0037

           TOTAL OUT =      148560.0469             TOTAL OUT =        1213.3345

            IN - OUT =           3.1406              IN - OUT =       5.0049E-02

 PERCENT DISCREPANCY =           0.00     PERCENT DISCREPANCY =           0.00






         TIME SUMMARY AT END OF TIME STEP   18 IN STRESS PERIOD    3
                    SECONDS     MINUTES      HOURS       DAYS        YEARS
                    -----------------------------------------------------------
   TIME STEP LENGTH  86400.      1440.0      24.000      1.0000     2.73785E-03
 STRESS PERIOD TIME 1.55520E+06  25920.      432.00      18.000     4.92813E-02
         TOTAL TIME 1.02816E+07 1.71360E+05  2856.0      119.00     0.32580    
1
 
 SOLVING FOR HEAD 

 OUTPUT CONTROL FOR STRESS PERIOD    3   TIME STEP   19
    SAVE HEAD FOR ALL LAYERS
    SAVE DRAWDOWN FOR ALL LAYERS
    SAVE BUDGET
    PRINT HEAD FOR ALL LAYERS
    PRINT BUDGET
 UBDSV1 SAVING "         STORAGE" ON UNIT  53 AT TIME STEP 19, STRESS PERIOD   3
 UBDSV2 SAVING "   CONSTANT HEAD" ON UNIT  53 AT TIME STEP 19, STRESS PERIOD   3
 UBDSV1 SAVING "FLOW RIGHT FACE " ON UNIT  53 AT TIME STEP 19, STRESS PERIOD   3
 UBDSV1 SAVING "FLOW FRONT FACE " ON UNIT  53 AT TIME STEP 19, STRESS PERIOD   3
 UBDSV1 SAVING "FLOW LOWER FACE " ON UNIT  53 AT TIME STEP 19, STRESS PERIOD   3

 SAVING SATURATED THICKNESS AND FLOW TERMS ON UNIT   54 FOR MT3DMS
 BY THE LINK-MT3DMS PACKAGE V7 AT TIME STEP   19, STRESS PERIOD    3

1
              HEAD IN LAYER   1 AT END OF TIME STEP  19 IN STRESS PERIOD    3
  ---------------------------------------------------------------------------

            1           2           3           4           5           6           7           8           9          10
 ........................................................................................................................
   1    9.998       8.950       7.889       6.815       5.725       4.618       3.492       2.347       1.184      1.5443E-03
   2    9.998       8.952       7.894       6.822       5.735       4.629       3.502       2.354       1.188      1.5492E-03
   3    9.998       8.956       7.903       6.837       5.756       4.654       3.523       2.368       1.195      1.5587E-03
   4    9.998       8.962       7.915       6.858       5.790       4.697       3.556       2.389       1.204      1.5720E-03
   5    9.998       8.967       7.927       6.883       5.835       4.774       3.603       2.413       1.215      1.5859E-03
   6    9.998       8.969       7.933       6.899       5.882       4.961       3.651       2.429       1.220      1.5935E-03
   7    9.998       8.968       7.929       6.885       5.838       4.777       3.606       2.415       1.216      1.5874E-03
   8    9.998       8.964       7.919       6.864       5.796       4.704       3.563       2.394       1.207      1.5754E-03
   9    9.998       8.960       7.909       6.846       5.768       4.666       3.534       2.376       1.199      1.5648E-03
  10    9.998       8.958       7.904       6.837       5.754       4.649       3.520       2.367       1.195      1.5588E-03
1
              HEAD IN LAYER   2 AT END OF TIME STEP  19 IN STRESS PERIOD    3
  ---------------------------------------------------------------------------

            1           2           3           4           5           6           7           8           9          10
 ........................................................................................................................
   1    9.998       8.949       7.887       6.813       5.724       4.617       3.490       2.345       1.182      2.5392E-03
   2    9.998       8.951       7.892       6.821       5.734       4.628       3.500       2.352       1.186      2.5468E-03
   3    9.998       8.955       7.901       6.835       5.755       4.652       3.521       2.366       1.193      2.5618E-03
   4    9.998       8.960       7.913       6.857       5.787       4.694       3.554       2.387       1.202      2.5825E-03
   5    9.998       8.965       7.925       6.880       5.832       4.770       3.599       2.410       1.212      2.6040E-03
   6    9.998       8.968       7.931       6.896       5.878       4.979       3.646       2.426       1.218      2.6158E-03
   7    9.998       8.966       7.927       6.883       5.835       4.773       3.602       2.412       1.214      2.6065E-03
   8    9.998       8.962       7.917       6.862       5.794       4.701       3.560       2.391       1.205      2.5880E-03
   9    9.998       8.958       7.908       6.845       5.766       4.664       3.532       2.374       1.197      2.5713E-03
  10    9.998       8.956       7.902       6.836       5.752       4.648       3.518       2.365       1.193      2.5620E-03
1
              HEAD IN LAYER   3 AT END OF TIME STEP  19 IN STRESS PERIOD    3
  ---------------------------------------------------------------------------

            1           2           3           4           5           6           7           8           9          10
 ........................................................................................................................
   1    9.998       8.947       7.886       6.812       5.723       4.615       3.489       2.343       1.181      2.5895E-03
   2    9.998       8.950       7.891       6.819       5.732       4.626       3.499       2.350       1.184      2.5972E-03
   3    9.998       8.954       7.900       6.834       5.753       4.650       3.519       2.364       1.191      2.6123E-03
   4    9.998       8.959       7.912       6.855       5.785       4.691       3.552       2.385       1.201      2.6331E-03
   5    9.998       8.964       7.924       6.878       5.829       4.763       3.596       2.408       1.210      2.6547E-03
   6    9.998       8.966       7.930       6.894       5.872       4.909       3.639       2.423       1.216      2.6665E-03
   7    9.998       8.965       7.925       6.881       5.832       4.766       3.598       2.410       1.212      2.6572E-03
   8    9.998       8.961       7.916       6.861       5.792       4.698       3.558       2.389       1.203      2.6387E-03
   9    9.998       8.957       7.906       6.844       5.765       4.663       3.530       2.373       1.195      2.6220E-03
  10    9.998       8.955       7.901       6.835       5.751       4.646       3.517       2.364       1.191      2.6127E-03
1
              HEAD IN LAYER   4 AT END OF TIME STEP  19 IN STRESS PERIOD    3
  ---------------------------------------------------------------------------

            1           2           3           4           5           6           7           8           9          10
 ........................................................................................................................
   1    9.998       8.947       7.885       6.811       5.722       4.615       3.488       2.342       1.180      2.5895E-03
   2    9.998       8.949       7.890       6.818       5.732       4.626       3.498       2.349       1.183      2.5971E-03
   3    9.998       8.953       7.899       6.833       5.752       4.649       3.518       2.363       1.190      2.6121E-03
   4    9.998       8.958       7.911       6.854       5.784       4.690       3.550       2.383       1.199      2.6328E-03
   5    9.998       8.963       7.923       6.877       5.827       4.757       3.593       2.406       1.209      2.6541E-03
   6    9.998       8.966       7.929       6.892       5.867       4.869       3.633       2.421       1.214      2.6658E-03
   7    9.998       8.964       7.924       6.880       5.830       4.761       3.596       2.408       1.210      2.6567E-03
   8    9.998       8.960       7.915       6.860       5.791       4.697       3.556       2.388       1.202      2.6384E-03
   9    9.998       8.956       7.906       6.843       5.764       4.661       3.529       2.371       1.194      2.6219E-03
  10    9.998       8.954       7.900       6.834       5.750       4.645       3.516       2.363       1.190      2.6126E-03
1
              HEAD IN LAYER   5 AT END OF TIME STEP  19 IN STRESS PERIOD    3
  ---------------------------------------------------------------------------

            1           2           3           4           5           6           7           8           9          10
 ........................................................................................................................
   1    9.998       8.946       7.885       6.811       5.721       4.614       3.488       2.342       1.179      2.5885E-03
   2    9.998       8.948       7.889       6.818       5.731       4.625       3.497       2.349       1.183      2.5961E-03
   3    9.998       8.953       7.898       6.833       5.752       4.649       3.517       2.363       1.189      2.6110E-03
   4    9.998       8.958       7.910       6.853       5.783       4.689       3.549       2.383       1.199      2.6316E-03
   5    9.998       8.963       7.922       6.877       5.826       4.755       3.592       2.405       1.208      2.6528E-03
   6    9.998       8.965       7.928       6.891       5.864       4.850       3.630       2.420       1.214      2.6643E-03
   7    9.998       8.964       7.924       6.879       5.829       4.758       3.595       2.407       1.210      2.6553E-03
   8    9.998       8.960       7.914       6.859       5.790       4.696       3.556       2.387       1.201      2.6372E-03
   9    9.998       8.956       7.905       6.842       5.763       4.661       3.529       2.371       1.194      2.6208E-03
  10    9.998       8.954       7.900       6.833       5.750       4.645       3.515       2.362       1.190      2.6116E-03

 HEAD WILL BE SAVED ON UNIT   51 AT END OF TIME STEP   19, STRESS PERIOD    3

 DRAWDOWN WILL BE SAVED ON UNIT   52 AT END OF TIME STEP   19, STRESS PERIOD    3
1
  VOLUMETRIC BUDGET FOR ENTIRE MODEL AT END OF TIME STEP   19, STRESS PERIOD   3
  ------------------------------------------------------------------------------

     CUMULATIVE VOLUMES      L**3       RATES FOR THIS TIME STEP      L**3/T
     ------------------                 ------------------------

           IN:                                      IN:
           ---                                      ---
             STORAGE =         397.1427               STORAGE =          14.6060
       CONSTANT HEAD =           0.0000         CONSTANT HEAD =           0.0000
               WELLS =       11140.0000                 WELLS =          60.0000
     HEAD DEP BOUNDS =      138238.8594       HEAD DEP BOUNDS =        1138.2026

            TOTAL IN =      149776.0000              TOTAL IN =        1212.8086

          OUT:                                     OUT:
          ----                                     ----
             STORAGE =        7318.9946               STORAGE =           9.7332
       CONSTANT HEAD =           0.0000         CONSTANT HEAD =           0.0000
               WELLS =           0.0000                 WELLS =           0.0000
     HEAD DEP BOUNDS =      142453.7969       HEAD DEP BOUNDS =        1203.0211

           TOTAL OUT =      149772.7969             TOTAL OUT =        1212.7543

            IN - OUT =           3.2031              IN - OUT =       5.4321E-02

 PERCENT DISCREPANCY =           0.00     PERCENT DISCREPANCY =           0.00






         TIME SUMMARY AT END OF TIME STEP   19 IN STRESS PERIOD    3
                    SECONDS     MINUTES      HOURS       DAYS        YEARS
                    -----------------------------------------------------------
   TIME STEP LENGTH  86400.      1440.0      24.000      1.0000     2.73785E-03
 STRESS PERIOD TIME 1.64160E+06  27360.      456.00      19.000     5.20192E-02
         TOTAL TIME 1.03680E+07 1.72800E+05  2880.0      120.00     0.32854    
1
 
 SOLVING FOR HEAD 

 OUTPUT CONTROL FOR STRESS PERIOD    3   TIME STEP   20
    SAVE HEAD FOR ALL LAYERS
    SAVE DRAWDOWN FOR ALL LAYERS
    SAVE BUDGET
    PRINT HEAD FOR ALL LAYERS
    PRINT BUDGET
 UBDSV1 SAVING "         STORAGE" ON UNIT  53 AT TIME STEP 20, STRESS PERIOD   3
 UBDSV2 SAVING "   CONSTANT HEAD" ON UNIT  53 AT TIME STEP 20, STRESS PERIOD   3
 UBDSV1 SAVING "FLOW RIGHT FACE " ON UNIT  53 AT TIME STEP 20, STRESS PERIOD   3
 UBDSV1 SAVING "FLOW FRONT FACE " ON UNIT  53 AT TIME STEP 20, STRESS PERIOD   3
 UBDSV1 SAVING "FLOW LOWER FACE " ON UNIT  53 AT TIME STEP 20, STRESS PERIOD   3

 SAVING SATURATED THICKNESS AND FLOW TERMS ON UNIT   54 FOR MT3DMS
 BY THE LINK-MT3DMS PACKAGE V7 AT TIME STEP   20, STRESS PERIOD    3

1
              HEAD IN LAYER   1 AT END OF TIME STEP  20 IN STRESS PERIOD    3
  ---------------------------------------------------------------------------

            1           2           3           4           5           6           7           8           9          10
 ........................................................................................................................
   1    9.998       8.950       7.889       6.815       5.725       4.619       3.492       2.347       1.184      1.5445E-03
   2    9.998       8.952       7.894       6.822       5.736       4.630       3.502       2.354       1.188      1.5493E-03
   3    9.998       8.957       7.903       6.837       5.756       4.654       3.523       2.368       1.195      1.5588E-03
   4    9.998       8.962       7.915       6.858       5.789       4.696       3.556       2.389       1.204      1.5720E-03
   5    9.998       8.967       7.927       6.882       5.835       4.773       3.602       2.413       1.215      1.5857E-03
   6    9.998       8.969       7.933       6.898       5.881       4.959       3.650       2.429       1.220      1.5933E-03
   7    9.998       8.968       7.929       6.885       5.838       4.776       3.605       2.415       1.216      1.5873E-03
   8    9.998       8.964       7.919       6.864       5.796       4.703       3.562       2.394       1.207      1.5755E-03
   9    9.998       8.960       7.909       6.847       5.768       4.666       3.534       2.376       1.199      1.5649E-03
  10    9.998       8.958       7.904       6.837       5.754       4.649       3.520       2.367       1.195      1.5589E-03
1
              HEAD IN LAYER   2 AT END OF TIME STEP  20 IN STRESS PERIOD    3
  ---------------------------------------------------------------------------

            1           2           3           4           5           6           7           8           9          10
 ........................................................................................................................
   1    9.998       8.949       7.887       6.813       5.724       4.617       3.491       2.345       1.182      2.5394E-03
   2    9.998       8.951       7.892       6.821       5.734       4.628       3.500       2.352       1.186      2.5470E-03
   3    9.998       8.955       7.901       6.835       5.755       4.652       3.521       2.366       1.193      2.5619E-03
   4    9.998       8.960       7.913       6.857       5.787       4.694       3.554       2.387       1.202      2.5825E-03
   5    9.998       8.965       7.925       6.880       5.831       4.769       3.598       2.410       1.212      2.6038E-03
   6    9.998       8.968       7.931       6.896       5.877       4.978       3.645       2.425       1.218      2.6155E-03
   7    9.998       8.966       7.927       6.883       5.834       4.772       3.601       2.412       1.213      2.6063E-03
   8    9.998       8.962       7.917       6.862       5.794       4.701       3.560       2.391       1.205      2.5880E-03
   9    9.998       8.958       7.908       6.845       5.766       4.664       3.532       2.374       1.197      2.5715E-03
  10    9.998       8.956       7.903       6.836       5.753       4.648       3.518       2.365       1.193      2.5622E-03
1
              HEAD IN LAYER   3 AT END OF TIME STEP  20 IN STRESS PERIOD    3
  ---------------------------------------------------------------------------

            1           2           3           4           5           6           7           8           9          10
 ........................................................................................................................
   1    9.998       8.947       7.886       6.812       5.723       4.616       3.489       2.344       1.181      2.5898E-03
   2    9.998       8.950       7.891       6.820       5.733       4.627       3.499       2.351       1.184      2.5974E-03
   3    9.998       8.954       7.900       6.834       5.753       4.650       3.519       2.364       1.191      2.6124E-03
   4    9.998       8.959       7.912       6.855       5.785       4.691       3.551       2.385       1.201      2.6331E-03
   5    9.998       8.964       7.923       6.878       5.828       4.762       3.595       2.407       1.210      2.6545E-03
   6    9.998       8.966       7.930       6.893       5.871       4.908       3.638       2.422       1.216      2.6662E-03
   7    9.998       8.965       7.925       6.881       5.831       4.765       3.598       2.410       1.211      2.6570E-03
   8    9.998       8.961       7.916       6.861       5.792       4.698       3.558       2.389       1.203      2.6387E-03
   9    9.998       8.957       7.907       6.844       5.765       4.663       3.530       2.373       1.196      2.6222E-03
  10    9.998       8.955       7.901       6.835       5.751       4.647       3.517       2.364       1.191      2.6129E-03
1
              HEAD IN LAYER   4 AT END OF TIME STEP  20 IN STRESS PERIOD    3
  ---------------------------------------------------------------------------

            1           2           3           4           5           6           7           8           9          10
 ........................................................................................................................
   1    9.998       8.947       7.885       6.811       5.722       4.615       3.488       2.343       1.180      2.5897E-03
   2    9.998       8.949       7.890       6.819       5.732       4.626       3.498       2.349       1.183      2.5973E-03
   3    9.998       8.953       7.899       6.833       5.752       4.649       3.518       2.363       1.190      2.6122E-03
   4    9.998       8.958       7.911       6.854       5.784       4.689       3.550       2.383       1.199      2.6327E-03
   5    9.998       8.963       7.922       6.877       5.826       4.757       3.592       2.406       1.209      2.6539E-03
   6    9.998       8.966       7.929       6.892       5.866       4.867       3.632       2.420       1.214      2.6654E-03
   7    9.998       8.964       7.924       6.880       5.829       4.760       3.595       2.408       1.210      2.6564E-03
   8    9.998       8.960       7.915       6.860       5.791       4.696       3.556       2.388       1.202      2.6384E-03
   9    9.998       8.957       7.906       6.843       5.764       4.662       3.529       2.372       1.194      2.6221E-03
  10    9.998       8.954       7.901       6.834       5.751       4.646       3.516       2.363       1.190      2.6129E-03
1
              HEAD IN LAYER   5 AT END OF TIME STEP  20 IN STRESS PERIOD    3
  ---------------------------------------------------------------------------

            1           2           3           4           5           6           7           8           9          10
 ........................................................................................................................
   1    9.998       8.946       7.885       6.811       5.722       4.614       3.488       2.342       1.179      2.5887E-03
   2    9.998       8.949       7.890       6.818       5.731       4.625       3.497       2.349       1.183      2.5963E-03
   3    9.998       8.953       7.899       6.833       5.752       4.649       3.517       2.363       1.189      2.6111E-03
   4    9.998       8.958       7.910       6.853       5.783       4.688       3.549       2.382       1.199      2.6315E-03
   5    9.998       8.963       7.922       6.876       5.825       4.754       3.591       2.405       1.208      2.6525E-03
   6    9.998       8.965       7.928       6.891       5.863       4.848       3.629       2.419       1.214      2.6640E-03
   7    9.998       8.964       7.924       6.879       5.828       4.757       3.594       2.407       1.210      2.6551E-03
   8    9.998       8.960       7.914       6.859       5.790       4.696       3.555       2.387       1.201      2.6372E-03
   9    9.998       8.956       7.905       6.843       5.763       4.661       3.529       2.371       1.194      2.6210E-03
  10    9.998       8.954       7.900       6.834       5.750       4.645       3.515       2.362       1.190      2.6118E-03

 HEAD WILL BE SAVED ON UNIT   51 AT END OF TIME STEP   20, STRESS PERIOD    3

 DRAWDOWN WILL BE SAVED ON UNIT   52 AT END OF TIME STEP   20, STRESS PERIOD    3
1
  VOLUMETRIC BUDGET FOR ENTIRE MODEL AT END OF TIME STEP   20, STRESS PERIOD   3
  ------------------------------------------------------------------------------

     CUMULATIVE VOLUMES      L**3       RATES FOR THIS TIME STEP      L**3/T
     ------------------                 ------------------------

           IN:                                      IN:
           ---                                      ---
             STORAGE =         411.2759               STORAGE =          14.1332
       CONSTANT HEAD =           0.0000         CONSTANT HEAD =           0.0000
               WELLS =       11200.0000                 WELLS =          60.0000
     HEAD DEP BOUNDS =      139376.9844       HEAD DEP BOUNDS =        1138.1213

            TOTAL IN =      150988.2656              TOTAL IN =        1212.2546

          OUT:                                     OUT:
          ----                                     ----
             STORAGE =        7328.1660               STORAGE =           9.1714
       CONSTANT HEAD =           0.0000         CONSTANT HEAD =           0.0000
               WELLS =           0.0000                 WELLS =           0.0000
     HEAD DEP BOUNDS =      143656.8281       HEAD DEP BOUNDS =        1203.0320

           TOTAL OUT =      150985.0000             TOTAL OUT =        1212.2034

            IN - OUT =           3.2656              IN - OUT =       5.1270E-02

 PERCENT DISCREPANCY =           0.00     PERCENT DISCREPANCY =           0.00






         TIME SUMMARY AT END OF TIME STEP   20 IN STRESS PERIOD    3
                    SECONDS     MINUTES      HOURS       DAYS        YEARS
                    -----------------------------------------------------------
   TIME STEP LENGTH  86400.      1440.0      24.000      1.0000     2.73785E-03
 STRESS PERIOD TIME 1.72800E+06  28800.      480.00      20.000     5.47570E-02
         TOTAL TIME 1.04544E+07 1.74240E+05  2904.0      121.00     0.33128    
1
 
 SOLVING FOR HEAD 

 OUTPUT CONTROL FOR STRESS PERIOD    3   TIME STEP   21
    SAVE HEAD FOR ALL LAYERS
    SAVE DRAWDOWN FOR ALL LAYERS
    SAVE BUDGET
    PRINT HEAD FOR ALL LAYERS
    PRINT BUDGET
 UBDSV1 SAVING "         STORAGE" ON UNIT  53 AT TIME STEP 21, STRESS PERIOD   3
 UBDSV2 SAVING "   CONSTANT HEAD" ON UNIT  53 AT TIME STEP 21, STRESS PERIOD   3
 UBDSV1 SAVING "FLOW RIGHT FACE " ON UNIT  53 AT TIME STEP 21, STRESS PERIOD   3
 UBDSV1 SAVING "FLOW FRONT FACE " ON UNIT  53 AT TIME STEP 21, STRESS PERIOD   3
 UBDSV1 SAVING "FLOW LOWER FACE " ON UNIT  53 AT TIME STEP 21, STRESS PERIOD   3

 SAVING SATURATED THICKNESS AND FLOW TERMS ON UNIT   54 FOR MT3DMS
 BY THE LINK-MT3DMS PACKAGE V7 AT TIME STEP   21, STRESS PERIOD    3

1
              HEAD IN LAYER   1 AT END OF TIME STEP  21 IN STRESS PERIOD    3
  ---------------------------------------------------------------------------

            1           2           3           4           5           6           7           8           9          10
 ........................................................................................................................
   1    9.998       8.950       7.889       6.815       5.726       4.619       3.492       2.347       1.184      1.5447E-03
   2    9.998       8.953       7.894       6.823       5.736       4.630       3.502       2.354       1.188      1.5496E-03
   3    9.998       8.957       7.903       6.837       5.757       4.654       3.523       2.368       1.195      1.5590E-03
   4    9.998       8.962       7.915       6.858       5.789       4.696       3.556       2.389       1.204      1.5720E-03
   5    9.998       8.967       7.927       6.882       5.834       4.772       3.601       2.412       1.215      1.5856E-03
   6    9.998       8.969       7.933       6.898       5.880       4.957       3.649       2.428       1.220      1.5931E-03
   7    9.998       8.968       7.929       6.885       5.837       4.775       3.604       2.414       1.216      1.5871E-03
   8    9.998       8.964       7.919       6.864       5.796       4.703       3.562       2.394       1.207      1.5755E-03
   9    9.998       8.960       7.910       6.847       5.768       4.666       3.534       2.376       1.199      1.5650E-03
  10    9.998       8.958       7.904       6.838       5.754       4.650       3.520       2.367       1.195      1.5592E-03
1
              HEAD IN LAYER   2 AT END OF TIME STEP  21 IN STRESS PERIOD    3
  ---------------------------------------------------------------------------

            1           2           3           4           5           6           7           8           9          10
 ........................................................................................................................
   1    9.998       8.949       7.888       6.814       5.724       4.617       3.491       2.345       1.183      2.5397E-03
   2    9.998       8.951       7.892       6.821       5.734       4.628       3.501       2.352       1.186      2.5473E-03
   3    9.998       8.955       7.901       6.836       5.755       4.652       3.521       2.366       1.193      2.5621E-03
   4    9.998       8.960       7.913       6.857       5.787       4.693       3.553       2.386       1.202      2.5825E-03
   5    9.998       8.965       7.925       6.880       5.831       4.768       3.598       2.410       1.212      2.6036E-03
   6    9.998       8.968       7.931       6.895       5.876       4.976       3.644       2.425       1.218      2.6152E-03
   7    9.998       8.966       7.927       6.882       5.834       4.771       3.601       2.412       1.213      2.6061E-03
   8    9.998       8.962       7.917       6.862       5.794       4.700       3.560       2.391       1.205      2.5880E-03
   9    9.998       8.959       7.908       6.845       5.766       4.664       3.532       2.375       1.197      2.5717E-03
  10    9.998       8.956       7.903       6.836       5.753       4.648       3.518       2.366       1.193      2.5625E-03
1
              HEAD IN LAYER   3 AT END OF TIME STEP  21 IN STRESS PERIOD    3
  ---------------------------------------------------------------------------

            1           2           3           4           5           6           7           8           9          10
 ........................................................................................................................
   1    9.998       8.948       7.886       6.812       5.723       4.616       3.489       2.344       1.181      2.5900E-03
   2    9.998       8.950       7.891       6.820       5.733       4.627       3.499       2.351       1.184      2.5976E-03
   3    9.998       8.954       7.900       6.834       5.753       4.650       3.519       2.364       1.191      2.6125E-03
   4    9.998       8.959       7.912       6.855       5.785       4.691       3.551       2.384       1.201      2.6331E-03
   5    9.998       8.964       7.923       6.878       5.828       4.761       3.594       2.407       1.210      2.6542E-03
   6    9.998       8.966       7.930       6.893       5.870       4.907       3.637       2.422       1.215      2.6658E-03
   7    9.998       8.965       7.925       6.881       5.831       4.764       3.597       2.409       1.211      2.6568E-03
   8    9.998       8.961       7.916       6.861       5.792       4.698       3.557       2.389       1.203      2.6387E-03
   9    9.998       8.957       7.907       6.844       5.765       4.663       3.530       2.373       1.196      2.6224E-03
  10    9.998       8.955       7.902       6.835       5.752       4.647       3.517       2.364       1.191      2.6132E-03
1
              HEAD IN LAYER   4 AT END OF TIME STEP  21 IN STRESS PERIOD    3
  ---------------------------------------------------------------------------

            1           2           3           4           5           6           7           8           9          10
 ........................................................................................................................
   1    9.998       8.947       7.886       6.812       5.722       4.615       3.489       2.343       1.180      2.5900E-03
   2    9.998       8.949       7.890       6.819       5.732       4.626       3.498       2.350       1.183      2.5976E-03
   3    9.998       8.953       7.899       6.833       5.752       4.649       3.518       2.363       1.190      2.6123E-03
   4    9.998       8.958       7.911       6.854       5.784       4.689       3.549       2.383       1.199      2.6327E-03
   5    9.998       8.963       7.922       6.877       5.826       4.756       3.592       2.405       1.209      2.6536E-03
   6    9.998       8.966       7.929       6.891       5.865       4.866       3.632       2.420       1.214      2.6651E-03
   7    9.998       8.964       7.924       6.879       5.829       4.759       3.595       2.408       1.210      2.6562E-03
   8    9.998       8.960       7.915       6.860       5.790       4.696       3.556       2.388       1.202      2.6384E-03
   9    9.998       8.957       7.906       6.843       5.764       4.662       3.529       2.372       1.195      2.6222E-03
  10    9.998       8.954       7.901       6.834       5.751       4.646       3.516       2.363       1.190      2.6131E-03
1
              HEAD IN LAYER   5 AT END OF TIME STEP  21 IN STRESS PERIOD    3
  ---------------------------------------------------------------------------

            1           2           3           4           5           6           7           8           9          10
 ........................................................................................................................
   1    9.998       8.946       7.885       6.811       5.722       4.615       3.488       2.342       1.179      2.5890E-03
   2    9.998       8.949       7.890       6.819       5.732       4.626       3.498       2.349       1.183      2.5965E-03
   3    9.998       8.953       7.899       6.833       5.752       4.649       3.517       2.363       1.190      2.6112E-03
   4    9.998       8.958       7.910       6.853       5.783       4.688       3.549       2.382       1.199      2.6315E-03
   5    9.998       8.963       7.922       6.876       5.824       4.753       3.590       2.404       1.208      2.6523E-03
   6    9.998       8.965       7.928       6.891       5.862       4.847       3.628       2.419       1.213      2.6636E-03
   7    9.998       8.964       7.924       6.879       5.828       4.756       3.593       2.407       1.209      2.6549E-03
   8    9.998       8.960       7.914       6.859       5.790       4.695       3.555       2.387       1.201      2.6372E-03
   9    9.998       8.956       7.906       6.843       5.764       4.661       3.529       2.371       1.194      2.6211E-03
  10    9.998       8.954       7.900       6.834       5.750       4.645       3.516       2.362       1.190      2.6121E-03

 HEAD WILL BE SAVED ON UNIT   51 AT END OF TIME STEP   21, STRESS PERIOD    3

 DRAWDOWN WILL BE SAVED ON UNIT   52 AT END OF TIME STEP   21, STRESS PERIOD    3
1
  VOLUMETRIC BUDGET FOR ENTIRE MODEL AT END OF TIME STEP   21, STRESS PERIOD   3
  ------------------------------------------------------------------------------

     CUMULATIVE VOLUMES      L**3       RATES FOR THIS TIME STEP      L**3/T
     ------------------                 ------------------------

           IN:                                      IN:
           ---                                      ---
             STORAGE =         424.9658               STORAGE =          13.6899
       CONSTANT HEAD =           0.0000         CONSTANT HEAD =           0.0000
               WELLS =       11260.0000                 WELLS =          60.0000
     HEAD DEP BOUNDS =      140515.0312       HEAD DEP BOUNDS =        1138.0450

            TOTAL IN =      152200.0000              TOTAL IN =        1211.7350

          OUT:                                     OUT:
          ----                                     ----
             STORAGE =        7336.8179               STORAGE =           8.6516
       CONSTANT HEAD =           0.0000         CONSTANT HEAD =           0.0000
               WELLS =           0.0000                 WELLS =           0.0000
     HEAD DEP BOUNDS =      144859.8750       HEAD DEP BOUNDS =        1203.0406

           TOTAL OUT =      152196.6875             TOTAL OUT =        1211.6923

            IN - OUT =           3.3125              IN - OUT =       4.2725E-02

 PERCENT DISCREPANCY =           0.00     PERCENT DISCREPANCY =           0.00






         TIME SUMMARY AT END OF TIME STEP   21 IN STRESS PERIOD    3
                    SECONDS     MINUTES      HOURS       DAYS        YEARS
                    -----------------------------------------------------------
   TIME STEP LENGTH  86400.      1440.0      24.000      1.0000     2.73785E-03
 STRESS PERIOD TIME 1.81440E+06  30240.      504.00      21.000     5.74949E-02
         TOTAL TIME 1.05408E+07 1.75680E+05  2928.0      122.00     0.33402    
1
 
 SOLVING FOR HEAD 

 OUTPUT CONTROL FOR STRESS PERIOD    3   TIME STEP   22
    SAVE HEAD FOR ALL LAYERS
    SAVE DRAWDOWN FOR ALL LAYERS
    SAVE BUDGET
    PRINT HEAD FOR ALL LAYERS
    PRINT BUDGET
 UBDSV1 SAVING "         STORAGE" ON UNIT  53 AT TIME STEP 22, STRESS PERIOD   3
 UBDSV2 SAVING "   CONSTANT HEAD" ON UNIT  53 AT TIME STEP 22, STRESS PERIOD   3
 UBDSV1 SAVING "FLOW RIGHT FACE " ON UNIT  53 AT TIME STEP 22, STRESS PERIOD   3
 UBDSV1 SAVING "FLOW FRONT FACE " ON UNIT  53 AT TIME STEP 22, STRESS PERIOD   3
 UBDSV1 SAVING "FLOW LOWER FACE " ON UNIT  53 AT TIME STEP 22, STRESS PERIOD   3

 SAVING SATURATED THICKNESS AND FLOW TERMS ON UNIT   54 FOR MT3DMS
 BY THE LINK-MT3DMS PACKAGE V7 AT TIME STEP   22, STRESS PERIOD    3

1
              HEAD IN LAYER   1 AT END OF TIME STEP  22 IN STRESS PERIOD    3
  ---------------------------------------------------------------------------

            1           2           3           4           5           6           7           8           9          10
 ........................................................................................................................
   1    9.998       8.951       7.890       6.815       5.726       4.619       3.493       2.347       1.184      1.5449E-03
   2    9.998       8.953       7.894       6.823       5.736       4.630       3.503       2.354       1.188      1.5497E-03
   3    9.998       8.957       7.903       6.837       5.757       4.654       3.523       2.368       1.195      1.5591E-03
   4    9.998       8.962       7.915       6.858       5.789       4.696       3.556       2.389       1.204      1.5720E-03
   5    9.998       8.967       7.927       6.882       5.833       4.771       3.601       2.412       1.214      1.5855E-03
   6    9.998       8.969       7.933       6.897       5.879       4.956       3.648       2.428       1.220      1.5929E-03
   7    9.998       8.968       7.929       6.884       5.836       4.774       3.603       2.414       1.216      1.5870E-03
   8    9.998       8.964       7.919       6.864       5.796       4.703       3.562       2.393       1.207      1.5755E-03
   9    9.998       8.960       7.910       6.847       5.768       4.666       3.534       2.377       1.199      1.5651E-03
  10    9.998       8.958       7.905       6.838       5.755       4.650       3.520       2.368       1.195      1.5593E-03
1
              HEAD IN LAYER   2 AT END OF TIME STEP  22 IN STRESS PERIOD    3
  ---------------------------------------------------------------------------

            1           2           3           4           5           6           7           8           9          10
 ........................................................................................................................
   1    9.998       8.949       7.888       6.814       5.725       4.618       3.491       2.346       1.183      2.5400E-03
   2    9.998       8.951       7.893       6.821       5.734       4.629       3.501       2.353       1.186      2.5475E-03
   3    9.998       8.955       7.901       6.836       5.755       4.652       3.521       2.366       1.193      2.5622E-03
   4    9.998       8.960       7.913       6.856       5.787       4.693       3.553       2.386       1.202      2.5824E-03
   5    9.998       8.965       7.925       6.880       5.830       4.767       3.597       2.409       1.212      2.6033E-03
   6    9.998       8.968       7.931       6.895       5.875       4.975       3.643       2.425       1.217      2.6149E-03
   7    9.998       8.966       7.927       6.882       5.833       4.770       3.600       2.411       1.213      2.6059E-03
   8    9.998       8.962       7.917       6.862       5.793       4.700       3.559       2.391       1.205      2.5880E-03
   9    9.998       8.959       7.908       6.846       5.767       4.664       3.532       2.375       1.197      2.5718E-03
  10    9.998       8.956       7.903       6.837       5.753       4.648       3.519       2.366       1.193      2.5628E-03
1
              HEAD IN LAYER   3 AT END OF TIME STEP  22 IN STRESS PERIOD    3
  ---------------------------------------------------------------------------

            1           2           3           4           5           6           7           8           9          10
 ........................................................................................................................
   1    9.998       8.948       7.887       6.813       5.723       4.616       3.490       2.344       1.181      2.5903E-03
   2    9.998       8.950       7.891       6.820       5.733       4.627       3.499       2.351       1.184      2.5978E-03
   3    9.998       8.954       7.900       6.834       5.753       4.650       3.519       2.365       1.191      2.6126E-03
   4    9.998       8.959       7.912       6.855       5.785       4.690       3.551       2.384       1.201      2.6330E-03
   5    9.998       8.964       7.923       6.878       5.827       4.760       3.594       2.407       1.210      2.6540E-03
   6    9.998       8.966       7.930       6.893       5.869       4.906       3.636       2.422       1.215      2.6655E-03
   7    9.998       8.965       7.925       6.880       5.830       4.764       3.596       2.409       1.211      2.6566E-03
   8    9.998       8.961       7.916       6.861       5.792       4.698       3.557       2.389       1.203      2.6387E-03
   9    9.998       8.957       7.907       6.844       5.765       4.663       3.530       2.373       1.196      2.6225E-03
  10    9.998       8.955       7.902       6.835       5.752       4.647       3.517       2.364       1.192      2.6134E-03
1
              HEAD IN LAYER   4 AT END OF TIME STEP  22 IN STRESS PERIOD    3
  ---------------------------------------------------------------------------

            1           2           3           4           5           6           7           8           9          10
 ........................................................................................................................
   1    9.998       8.947       7.886       6.812       5.723       4.615       3.489       2.343       1.180      2.5902E-03
   2    9.998       8.949       7.890       6.819       5.732       4.626       3.498       2.350       1.183      2.5977E-03
   3    9.998       8.953       7.899       6.833       5.752       4.649       3.518       2.363       1.190      2.6124E-03
   4    9.998       8.958       7.911       6.854       5.783       4.689       3.549       2.383       1.199      2.6326E-03
   5    9.998       8.963       7.922       6.876       5.825       4.755       3.591       2.405       1.209      2.6533E-03
   6    9.998       8.966       7.929       6.891       5.864       4.865       3.631       2.420       1.214      2.6647E-03
   7    9.998       8.964       7.924       6.879       5.828       4.758       3.594       2.407       1.210      2.6559E-03
   8    9.998       8.960       7.915       6.860       5.790       4.696       3.556       2.388       1.202      2.6383E-03
   9    9.998       8.957       7.906       6.843       5.764       4.662       3.529       2.372       1.195      2.6223E-03
  10    9.998       8.954       7.901       6.835       5.751       4.646       3.516       2.363       1.191      2.6133E-03
1
              HEAD IN LAYER   5 AT END OF TIME STEP  22 IN STRESS PERIOD    3
  ---------------------------------------------------------------------------

            1           2           3           4           5           6           7           8           9          10
 ........................................................................................................................
   1    9.998       8.947       7.885       6.812       5.722       4.615       3.488       2.343       1.179      2.5892E-03
   2    9.998       8.949       7.890       6.819       5.732       4.626       3.498       2.349       1.183      2.5967E-03
   3    9.998       8.953       7.899       6.833       5.752       4.649       3.517       2.363       1.190      2.6113E-03
   4    9.998       8.958       7.910       6.853       5.783       4.688       3.548       2.382       1.199      2.6314E-03
   5    9.998       8.963       7.922       6.876       5.824       4.752       3.590       2.404       1.208      2.6520E-03
   6    9.998       8.965       7.928       6.890       5.861       4.846       3.628       2.418       1.213      2.6633E-03
   7    9.998       8.964       7.924       6.878       5.827       4.755       3.593       2.406       1.209      2.6546E-03
   8    9.998       8.960       7.914       6.859       5.790       4.695       3.555       2.387       1.201      2.6371E-03
   9    9.998       8.956       7.906       6.843       5.764       4.661       3.529       2.371       1.194      2.6212E-03
  10    9.998       8.954       7.901       6.834       5.751       4.646       3.516       2.363       1.190      2.6123E-03

 HEAD WILL BE SAVED ON UNIT   51 AT END OF TIME STEP   22, STRESS PERIOD    3

 DRAWDOWN WILL BE SAVED ON UNIT   52 AT END OF TIME STEP   22, STRESS PERIOD    3
1
  VOLUMETRIC BUDGET FOR ENTIRE MODEL AT END OF TIME STEP   22, STRESS PERIOD   3
  ------------------------------------------------------------------------------

     CUMULATIVE VOLUMES      L**3       RATES FOR THIS TIME STEP      L**3/T
     ------------------                 ------------------------

           IN:                                      IN:
           ---                                      ---
             STORAGE =         438.2419               STORAGE =          13.2760
       CONSTANT HEAD =           0.0000         CONSTANT HEAD =           0.0000
               WELLS =       11320.0000                 WELLS =          60.0000
     HEAD DEP BOUNDS =      141652.9844       HEAD DEP BOUNDS =        1137.9594

            TOTAL IN =      153411.2188              TOTAL IN =        1211.2354

          OUT:                                     OUT:
          ----                                     ----
             STORAGE =        7344.9697               STORAGE =           8.1519
       CONSTANT HEAD =           0.0000         CONSTANT HEAD =           0.0000
               WELLS =           0.0000                 WELLS =           0.0000
     HEAD DEP BOUNDS =      146062.9219       HEAD DEP BOUNDS =        1203.0422

           TOTAL OUT =      153407.8906             TOTAL OUT =        1211.1941

            IN - OUT =           3.3281              IN - OUT =       4.1260E-02

 PERCENT DISCREPANCY =           0.00     PERCENT DISCREPANCY =           0.00






         TIME SUMMARY AT END OF TIME STEP   22 IN STRESS PERIOD    3
                    SECONDS     MINUTES      HOURS       DAYS        YEARS
                    -----------------------------------------------------------
   TIME STEP LENGTH  86400.      1440.0      24.000      1.0000     2.73785E-03
 STRESS PERIOD TIME 1.90080E+06  31680.      528.00      22.000     6.02327E-02
         TOTAL TIME 1.06272E+07 1.77120E+05  2952.0      123.00     0.33676    
1
 
 SOLVING FOR HEAD 

 OUTPUT CONTROL FOR STRESS PERIOD    3   TIME STEP   23
    SAVE HEAD FOR ALL LAYERS
    SAVE DRAWDOWN FOR ALL LAYERS
    SAVE BUDGET
    PRINT HEAD FOR ALL LAYERS
    PRINT BUDGET
 UBDSV1 SAVING "         STORAGE" ON UNIT  53 AT TIME STEP 23, STRESS PERIOD   3
 UBDSV2 SAVING "   CONSTANT HEAD" ON UNIT  53 AT TIME STEP 23, STRESS PERIOD   3
 UBDSV1 SAVING "FLOW RIGHT FACE " ON UNIT  53 AT TIME STEP 23, STRESS PERIOD   3
 UBDSV1 SAVING "FLOW FRONT FACE " ON UNIT  53 AT TIME STEP 23, STRESS PERIOD   3
 UBDSV1 SAVING "FLOW LOWER FACE " ON UNIT  53 AT TIME STEP 23, STRESS PERIOD   3

 SAVING SATURATED THICKNESS AND FLOW TERMS ON UNIT   54 FOR MT3DMS
 BY THE LINK-MT3DMS PACKAGE V7 AT TIME STEP   23, STRESS PERIOD    3

1
              HEAD IN LAYER   1 AT END OF TIME STEP  23 IN STRESS PERIOD    3
  ---------------------------------------------------------------------------

            1           2           3           4           5           6           7           8           9          10
 ........................................................................................................................
   1    9.998       8.951       7.890       6.816       5.726       4.619       3.493       2.348       1.185      1.5451E-03
   2    9.998       8.953       7.894       6.823       5.736       4.630       3.503       2.355       1.188      1.5498E-03
   3    9.998       8.957       7.903       6.838       5.757       4.654       3.523       2.368       1.195      1.5592E-03
   4    9.998       8.962       7.915       6.858       5.789       4.695       3.555       2.389       1.204      1.5719E-03
   5    9.998       8.967       7.927       6.882       5.833       4.770       3.600       2.412       1.214      1.5854E-03
   6    9.998       8.969       7.933       6.897       5.878       4.954       3.647       2.427       1.220      1.5927E-03
   7    9.998       8.968       7.929       6.884       5.836       4.773       3.603       2.414       1.215      1.5869E-03
   8    9.998       8.964       7.919       6.864       5.796       4.702       3.562       2.393       1.207      1.5755E-03
   9    9.998       8.960       7.910       6.847       5.768       4.666       3.534       2.377       1.199      1.5652E-03
  10    9.998       8.958       7.905       6.838       5.755       4.650       3.521       2.368       1.195      1.5595E-03
1
              HEAD IN LAYER   2 AT END OF TIME STEP  23 IN STRESS PERIOD    3
  ---------------------------------------------------------------------------

            1           2           3           4           5           6           7           8           9          10
 ........................................................................................................................
   1    9.998       8.949       7.888       6.814       5.725       4.618       3.491       2.346       1.183      2.5402E-03
   2    9.998       8.951       7.893       6.821       5.735       4.629       3.501       2.353       1.186      2.5477E-03
   3    9.998       8.955       7.902       6.836       5.755       4.652       3.521       2.366       1.193      2.5623E-03
   4    9.998       8.960       7.913       6.856       5.786       4.693       3.553       2.386       1.202      2.5824E-03
   5    9.998       8.965       7.925       6.879       5.829       4.766       3.596       2.409       1.212      2.6031E-03
   6    9.998       8.968       7.931       6.894       5.874       4.974       3.642       2.424       1.217      2.6145E-03
   7    9.998       8.966       7.927       6.882       5.833       4.769       3.599       2.411       1.213      2.6056E-03
   8    9.998       8.963       7.917       6.862       5.793       4.700       3.559       2.391       1.205      2.5880E-03
   9    9.998       8.959       7.908       6.846       5.767       4.664       3.532       2.375       1.198      2.5720E-03
  10    9.998       8.956       7.903       6.837       5.753       4.649       3.519       2.366       1.193      2.5630E-03
1
              HEAD IN LAYER   3 AT END OF TIME STEP  23 IN STRESS PERIOD    3
  ---------------------------------------------------------------------------

            1           2           3           4           5           6           7           8           9          10
 ........................................................................................................................
   1    9.998       8.948       7.887       6.813       5.724       4.617       3.490       2.344       1.181      2.5905E-03
   2    9.998       8.950       7.891       6.820       5.733       4.627       3.500       2.351       1.185      2.5980E-03
   3    9.998       8.954       7.900       6.834       5.753       4.650       3.519       2.365       1.191      2.6127E-03
   4    9.998       8.959       7.912       6.855       5.785       4.690       3.551       2.384       1.200      2.6329E-03
   5    9.998       8.964       7.923       6.877       5.827       4.760       3.593       2.406       1.210      2.6537E-03
   6    9.998       8.966       7.930       6.892       5.868       4.905       3.635       2.421       1.215      2.6651E-03
   7    9.998       8.965       7.925       6.880       5.830       4.763       3.596       2.409       1.211      2.6563E-03
   8    9.998       8.961       7.916       6.861       5.791       4.697       3.557       2.389       1.203      2.6387E-03
   9    9.998       8.958       7.907       6.844       5.765       4.663       3.530       2.373       1.196      2.6226E-03
  10    9.998       8.955       7.902       6.836       5.752       4.647       3.517       2.364       1.192      2.6136E-03
1
              HEAD IN LAYER   4 AT END OF TIME STEP  23 IN STRESS PERIOD    3
  ---------------------------------------------------------------------------

            1           2           3           4           5           6           7           8           9          10
 ........................................................................................................................
   1    9.998       8.947       7.886       6.812       5.723       4.616       3.489       2.343       1.180      2.5905E-03
   2    9.998       8.949       7.891       6.819       5.732       4.626       3.498       2.350       1.183      2.5979E-03
   3    9.998       8.953       7.899       6.834       5.752       4.649       3.518       2.363       1.190      2.6125E-03
   4    9.998       8.958       7.911       6.854       5.783       4.688       3.549       2.383       1.199      2.6325E-03
   5    9.998       8.963       7.922       6.876       5.825       4.754       3.591       2.405       1.209      2.6531E-03
   6    9.998       8.966       7.928       6.891       5.863       4.864       3.630       2.419       1.214      2.6643E-03
   7    9.998       8.964       7.924       6.879       5.828       4.758       3.593       2.407       1.210      2.6557E-03
   8    9.998       8.961       7.915       6.860       5.790       4.696       3.555       2.388       1.202      2.6383E-03
   9    9.998       8.957       7.906       6.843       5.764       4.662       3.529       2.372       1.195      2.6224E-03
  10    9.998       8.955       7.901       6.835       5.751       4.646       3.516       2.363       1.191      2.6135E-03
1
              HEAD IN LAYER   5 AT END OF TIME STEP  23 IN STRESS PERIOD    3
  ---------------------------------------------------------------------------

            1           2           3           4           5           6           7           8           9          10
 ........................................................................................................................
   1    9.998       8.947       7.886       6.812       5.722       4.615       3.489       2.343       1.180      2.5894E-03
   2    9.998       8.949       7.890       6.819       5.732       4.626       3.498       2.349       1.183      2.5969E-03
   3    9.998       8.953       7.899       6.833       5.752       4.649       3.517       2.363       1.190      2.6114E-03
   4    9.998       8.958       7.910       6.853       5.783       4.687       3.548       2.382       1.199      2.6313E-03
   5    9.998       8.963       7.922       6.876       5.823       4.751       3.589       2.404       1.208      2.6517E-03
   6    9.998       8.965       7.928       6.890       5.861       4.845       3.627       2.418       1.213      2.6629E-03
   7    9.998       8.964       7.924       6.878       5.827       4.755       3.592       2.406       1.209      2.6544E-03
   8    9.998       8.960       7.915       6.859       5.789       4.695       3.555       2.387       1.201      2.6371E-03
   9    9.998       8.956       7.906       6.843       5.764       4.661       3.529       2.371       1.194      2.6213E-03
  10    9.998       8.954       7.901       6.834       5.751       4.646       3.516       2.363       1.190      2.6125E-03

 HEAD WILL BE SAVED ON UNIT   51 AT END OF TIME STEP   23, STRESS PERIOD    3

 DRAWDOWN WILL BE SAVED ON UNIT   52 AT END OF TIME STEP   23, STRESS PERIOD    3
1
  VOLUMETRIC BUDGET FOR ENTIRE MODEL AT END OF TIME STEP   23, STRESS PERIOD   3
  ------------------------------------------------------------------------------

     CUMULATIVE VOLUMES      L**3       RATES FOR THIS TIME STEP      L**3/T
     ------------------                 ------------------------

           IN:                                      IN:
           ---                                      ---
             STORAGE =         451.1119               STORAGE =          12.8700
       CONSTANT HEAD =           0.0000         CONSTANT HEAD =           0.0000
               WELLS =       11380.0000                 WELLS =          60.0000
     HEAD DEP BOUNDS =      142790.8750       HEAD DEP BOUNDS =        1137.8929

            TOTAL IN =      154621.9844              TOTAL IN =        1210.7629

          OUT:                                     OUT:
          ----                                     ----
             STORAGE =        7352.6514               STORAGE =           7.6815
       CONSTANT HEAD =           0.0000         CONSTANT HEAD =           0.0000
               WELLS =           0.0000                 WELLS =           0.0000
     HEAD DEP BOUNDS =      147265.9531       HEAD DEP BOUNDS =        1203.0385

           TOTAL OUT =      154618.6094             TOTAL OUT =        1210.7200

            IN - OUT =           3.3750              IN - OUT =       4.2969E-02

 PERCENT DISCREPANCY =           0.00     PERCENT DISCREPANCY =           0.00






         TIME SUMMARY AT END OF TIME STEP   23 IN STRESS PERIOD    3
                    SECONDS     MINUTES      HOURS       DAYS        YEARS
                    -----------------------------------------------------------
   TIME STEP LENGTH  86400.      1440.0      24.000      1.0000     2.73785E-03
 STRESS PERIOD TIME 1.98720E+06  33120.      552.00      23.000     6.29706E-02
         TOTAL TIME 1.07136E+07 1.78560E+05  2976.0      124.00     0.33949    
1
 
 SOLVING FOR HEAD 

 OUTPUT CONTROL FOR STRESS PERIOD    3   TIME STEP   24
    SAVE HEAD FOR ALL LAYERS
    SAVE DRAWDOWN FOR ALL LAYERS
    SAVE BUDGET
    PRINT HEAD FOR ALL LAYERS
    PRINT BUDGET
 UBDSV1 SAVING "         STORAGE" ON UNIT  53 AT TIME STEP 24, STRESS PERIOD   3
 UBDSV2 SAVING "   CONSTANT HEAD" ON UNIT  53 AT TIME STEP 24, STRESS PERIOD   3
 UBDSV1 SAVING "FLOW RIGHT FACE " ON UNIT  53 AT TIME STEP 24, STRESS PERIOD   3
 UBDSV1 SAVING "FLOW FRONT FACE " ON UNIT  53 AT TIME STEP 24, STRESS PERIOD   3
 UBDSV1 SAVING "FLOW LOWER FACE " ON UNIT  53 AT TIME STEP 24, STRESS PERIOD   3

 SAVING SATURATED THICKNESS AND FLOW TERMS ON UNIT   54 FOR MT3DMS
 BY THE LINK-MT3DMS PACKAGE V7 AT TIME STEP   24, STRESS PERIOD    3

1
              HEAD IN LAYER   1 AT END OF TIME STEP  24 IN STRESS PERIOD    3
  ---------------------------------------------------------------------------

            1           2           3           4           5           6           7           8           9          10
 ........................................................................................................................
   1    9.998       8.951       7.890       6.816       5.727       4.620       3.493       2.348       1.185      1.5452E-03
   2    9.998       8.953       7.895       6.823       5.737       4.631       3.503       2.355       1.188      1.5499E-03
   3    9.998       8.957       7.903       6.838       5.757       4.654       3.523       2.368       1.195      1.5592E-03
   4    9.998       8.962       7.915       6.858       5.789       4.695       3.555       2.388       1.204      1.5719E-03
   5    9.998       8.967       7.927       6.881       5.832       4.769       3.599       2.411       1.214      1.5851E-03
   6    9.998       8.969       7.933       6.897       5.877       4.953       3.646       2.427       1.220      1.5925E-03
   7    9.998       8.968       7.929       6.884       5.835       4.773       3.602       2.414       1.215      1.5868E-03
   8    9.998       8.964       7.919       6.864       5.795       4.702       3.561       2.393       1.207      1.5755E-03
   9    9.998       8.960       7.910       6.847       5.769       4.666       3.534       2.377       1.200      1.5653E-03
  10    9.998       8.958       7.905       6.839       5.755       4.651       3.521       2.368       1.195      1.5596E-03
1
              HEAD IN LAYER   2 AT END OF TIME STEP  24 IN STRESS PERIOD    3
  ---------------------------------------------------------------------------

            1           2           3           4           5           6           7           8           9          10
 ........................................................................................................................
   1    9.998       8.949       7.888       6.814       5.725       4.618       3.492       2.346       1.183      2.5405E-03
   2    9.998       8.951       7.893       6.822       5.735       4.629       3.501       2.353       1.186      2.5479E-03
   3    9.998       8.955       7.902       6.836       5.755       4.652       3.521       2.366       1.193      2.5624E-03
   4    9.998       8.960       7.913       6.856       5.786       4.692       3.553       2.386       1.202      2.5823E-03
   5    9.998       8.965       7.925       6.879       5.829       4.765       3.596       2.409       1.212      2.6029E-03
   6    9.998       8.968       7.931       6.894       5.874       4.973       3.641       2.424       1.217      2.6142E-03
   7    9.998       8.966       7.927       6.882       5.832       4.768       3.599       2.411       1.213      2.6054E-03
   8    9.998       8.963       7.917       6.862       5.793       4.699       3.559       2.391       1.205      2.5879E-03
   9    9.998       8.959       7.909       6.846       5.767       4.665       3.532       2.375       1.198      2.5721E-03
  10    9.998       8.957       7.903       6.837       5.754       4.649       3.519       2.366       1.193      2.5632E-03
1
              HEAD IN LAYER   3 AT END OF TIME STEP  24 IN STRESS PERIOD    3
  ---------------------------------------------------------------------------

            1           2           3           4           5           6           7           8           9          10
 ........................................................................................................................
   1    9.998       8.948       7.887       6.813       5.724       4.617       3.490       2.345       1.181      2.5907E-03
   2    9.998       8.950       7.892       6.820       5.734       4.628       3.500       2.351       1.185      2.5982E-03
   3    9.998       8.954       7.900       6.835       5.753       4.650       3.519       2.365       1.191      2.6128E-03
   4    9.998       8.959       7.912       6.855       5.784       4.690       3.550       2.384       1.200      2.6328E-03
   5    9.998       8.964       7.923       6.877       5.826       4.759       3.592       2.406       1.210      2.6534E-03
   6    9.998       8.966       7.929       6.892       5.868       4.904       3.635       2.421       1.215      2.6648E-03
   7    9.998       8.965       7.925       6.880       5.829       4.762       3.595       2.408       1.211      2.6561E-03
   8    9.998       8.961       7.916       6.861       5.791       4.697       3.557       2.389       1.203      2.6386E-03
   9    9.998       8.958       7.907       6.844       5.765       4.663       3.531       2.373       1.196      2.6227E-03
  10    9.998       8.955       7.902       6.836       5.752       4.647       3.518       2.365       1.192      2.6138E-03
1
              HEAD IN LAYER   4 AT END OF TIME STEP  24 IN STRESS PERIOD    3
  ---------------------------------------------------------------------------

            1           2           3           4           5           6           7           8           9          10
 ........................................................................................................................
   1    9.998       8.947       7.886       6.812       5.723       4.616       3.489       2.343       1.180      2.5907E-03
   2    9.998       8.949       7.891       6.820       5.733       4.627       3.499       2.350       1.184      2.5981E-03
   3    9.998       8.953       7.899       6.834       5.752       4.649       3.518       2.363       1.190      2.6126E-03
   4    9.998       8.958       7.911       6.854       5.783       4.688       3.549       2.383       1.199      2.6324E-03
   5    9.998       8.963       7.922       6.876       5.824       4.754       3.590       2.404       1.208      2.6528E-03
   6    9.998       8.966       7.928       6.890       5.863       4.863       3.629       2.419       1.214      2.6640E-03
   7    9.998       8.964       7.924       6.879       5.827       4.757       3.593       2.407       1.210      2.6554E-03
   8    9.998       8.961       7.915       6.860       5.790       4.695       3.555       2.388       1.202      2.6382E-03
   9    9.998       8.957       7.906       6.844       5.764       4.662       3.529       2.372       1.195      2.6225E-03
  10    9.998       8.955       7.901       6.835       5.752       4.646       3.517       2.363       1.191      2.6137E-03
1
              HEAD IN LAYER   5 AT END OF TIME STEP  24 IN STRESS PERIOD    3
  ---------------------------------------------------------------------------

            1           2           3           4           5           6           7           8           9          10
 ........................................................................................................................
   1    9.998       8.947       7.886       6.812       5.723       4.616       3.489       2.343       1.180      2.5897E-03
   2    9.998       8.949       7.890       6.819       5.732       4.626       3.498       2.350       1.183      2.5971E-03
   3    9.998       8.953       7.899       6.833       5.752       4.649       3.517       2.363       1.190      2.6115E-03
   4    9.998       8.958       7.910       6.853       5.782       4.687       3.548       2.382       1.199      2.6312E-03
   5    9.998       8.963       7.922       6.875       5.823       4.751       3.589       2.404       1.208      2.6515E-03
   6    9.998       8.965       7.928       6.890       5.860       4.845       3.626       2.418       1.213      2.6626E-03
   7    9.998       8.964       7.924       6.878       5.826       4.754       3.592       2.406       1.209      2.6541E-03
   8    9.998       8.960       7.915       6.859       5.789       4.694       3.554       2.387       1.201      2.6370E-03
   9    9.998       8.957       7.906       6.843       5.764       4.661       3.529       2.371       1.194      2.6214E-03
  10    9.998       8.954       7.901       6.835       5.751       4.646       3.516       2.363       1.190      2.6127E-03

 HEAD WILL BE SAVED ON UNIT   51 AT END OF TIME STEP   24, STRESS PERIOD    3

 DRAWDOWN WILL BE SAVED ON UNIT   52 AT END OF TIME STEP   24, STRESS PERIOD    3
1
  VOLUMETRIC BUDGET FOR ENTIRE MODEL AT END OF TIME STEP   24, STRESS PERIOD   3
  ------------------------------------------------------------------------------

     CUMULATIVE VOLUMES      L**3       RATES FOR THIS TIME STEP      L**3/T
     ------------------                 ------------------------

           IN:                                      IN:
           ---                                      ---
             STORAGE =         463.5985               STORAGE =          12.4866
       CONSTANT HEAD =           0.0000         CONSTANT HEAD =           0.0000
               WELLS =       11440.0000                 WELLS =          60.0000
     HEAD DEP BOUNDS =      143928.7031       HEAD DEP BOUNDS =        1137.8311

            TOTAL IN =      155832.2969              TOTAL IN =        1210.3176

          OUT:                                     OUT:
          ----                                     ----
             STORAGE =        7359.8931               STORAGE =           7.2417
       CONSTANT HEAD =           0.0000         CONSTANT HEAD =           0.0000
               WELLS =           0.0000                 WELLS =           0.0000
     HEAD DEP BOUNDS =      148468.9844       HEAD DEP BOUNDS =        1203.0305

           TOTAL OUT =      155828.8750             TOTAL OUT =        1210.2722

            IN - OUT =           3.4219              IN - OUT =       4.5410E-02

 PERCENT DISCREPANCY =           0.00     PERCENT DISCREPANCY =           0.00






         TIME SUMMARY AT END OF TIME STEP   24 IN STRESS PERIOD    3
                    SECONDS     MINUTES      HOURS       DAYS        YEARS
                    -----------------------------------------------------------
   TIME STEP LENGTH  86400.      1440.0      24.000      1.0000     2.73785E-03
 STRESS PERIOD TIME 2.07360E+06  34560.      576.00      24.000     6.57084E-02
         TOTAL TIME 1.08000E+07 1.80000E+05  3000.0      125.00     0.34223    
1
 
 SOLVING FOR HEAD 

 OUTPUT CONTROL FOR STRESS PERIOD    3   TIME STEP   25
    SAVE HEAD FOR ALL LAYERS
    SAVE DRAWDOWN FOR ALL LAYERS
    SAVE BUDGET
    PRINT HEAD FOR ALL LAYERS
    PRINT BUDGET
 UBDSV1 SAVING "         STORAGE" ON UNIT  53 AT TIME STEP 25, STRESS PERIOD   3
 UBDSV2 SAVING "   CONSTANT HEAD" ON UNIT  53 AT TIME STEP 25, STRESS PERIOD   3
 UBDSV1 SAVING "FLOW RIGHT FACE " ON UNIT  53 AT TIME STEP 25, STRESS PERIOD   3
 UBDSV1 SAVING "FLOW FRONT FACE " ON UNIT  53 AT TIME STEP 25, STRESS PERIOD   3
 UBDSV1 SAVING "FLOW LOWER FACE " ON UNIT  53 AT TIME STEP 25, STRESS PERIOD   3

 SAVING SATURATED THICKNESS AND FLOW TERMS ON UNIT   54 FOR MT3DMS
 BY THE LINK-MT3DMS PACKAGE V7 AT TIME STEP   25, STRESS PERIOD    3

1
              HEAD IN LAYER   1 AT END OF TIME STEP  25 IN STRESS PERIOD    3
  ---------------------------------------------------------------------------

            1           2           3           4           5           6           7           8           9          10
 ........................................................................................................................
   1    9.998       8.951       7.890       6.816       5.727       4.620       3.494       2.348       1.185      1.5453E-03
   2    9.998       8.953       7.895       6.823       5.737       4.631       3.503       2.355       1.188      1.5501E-03
   3    9.998       8.957       7.903       6.838       5.757       4.654       3.523       2.369       1.195      1.5593E-03
   4    9.998       8.962       7.915       6.858       5.788       4.695       3.555       2.388       1.204      1.5719E-03
   5    9.998       8.967       7.927       6.881       5.831       4.768       3.599       2.411       1.214      1.5850E-03
   6    9.998       8.969       7.933       6.896       5.877       4.952       3.645       2.426       1.219      1.5923E-03
   7    9.998       8.968       7.929       6.884       5.834       4.772       3.601       2.413       1.215      1.5866E-03
   8    9.998       8.964       7.919       6.864       5.795       4.702       3.561       2.393       1.207      1.5755E-03
   9    9.998       8.961       7.910       6.848       5.769       4.667       3.534       2.377       1.200      1.5654E-03
  10    9.998       8.958       7.905       6.839       5.756       4.651       3.521       2.368       1.195      1.5597E-03
1
              HEAD IN LAYER   2 AT END OF TIME STEP  25 IN STRESS PERIOD    3
  ---------------------------------------------------------------------------

            1           2           3           4           5           6           7           8           9          10
 ........................................................................................................................
   1    9.998       8.949       7.889       6.815       5.726       4.619       3.492       2.346       1.183      2.5407E-03
   2    9.998       8.951       7.893       6.822       5.735       4.629       3.501       2.353       1.186      2.5481E-03
   3    9.998       8.955       7.902       6.836       5.755       4.652       3.521       2.366       1.193      2.5625E-03
   4    9.998       8.961       7.913       6.856       5.786       4.692       3.552       2.386       1.202      2.5822E-03
   5    9.998       8.965       7.925       6.879       5.828       4.764       3.595       2.408       1.212      2.6026E-03
   6    9.998       8.968       7.931       6.894       5.873       4.972       3.641       2.423       1.217      2.6138E-03
   7    9.998       8.966       7.927       6.882       5.832       4.768       3.598       2.410       1.213      2.6052E-03
   8    9.998       8.963       7.917       6.862       5.793       4.699       3.559       2.391       1.205      2.5879E-03
   9    9.998       8.959       7.909       6.846       5.767       4.665       3.532       2.375       1.198      2.5722E-03
  10    9.998       8.957       7.904       6.837       5.754       4.649       3.519       2.366       1.194      2.5634E-03
1
              HEAD IN LAYER   3 AT END OF TIME STEP  25 IN STRESS PERIOD    3
  ---------------------------------------------------------------------------

            1           2           3           4           5           6           7           8           9          10
 ........................................................................................................................
   1    9.998       8.948       7.887       6.813       5.724       4.617       3.490       2.345       1.181      2.5910E-03
   2    9.998       8.950       7.892       6.821       5.734       4.628       3.500       2.351       1.185      2.5984E-03
   3    9.998       8.954       7.900       6.835       5.753       4.650       3.519       2.365       1.191      2.6129E-03
   4    9.998       8.959       7.912       6.855       5.784       4.689       3.550       2.384       1.200      2.6328E-03
   5    9.998       8.964       7.923       6.877       5.826       4.758       3.592       2.406       1.210      2.6532E-03
   6    9.998       8.966       7.929       6.892       5.867       4.903       3.634       2.420       1.215      2.6644E-03
   7    9.998       8.965       7.925       6.880       5.829       4.761       3.595       2.408       1.211      2.6558E-03
   8    9.998       8.961       7.916       6.861       5.791       4.697       3.556       2.389       1.203      2.6385E-03
   9    9.998       8.958       7.907       6.845       5.765       4.663       3.531       2.373       1.196      2.6228E-03
  10    9.998       8.956       7.902       6.836       5.753       4.648       3.518       2.365       1.192      2.6140E-03
1
              HEAD IN LAYER   4 AT END OF TIME STEP  25 IN STRESS PERIOD    3
  ---------------------------------------------------------------------------

            1           2           3           4           5           6           7           8           9          10
 ........................................................................................................................
   1    9.998       8.947       7.886       6.813       5.723       4.616       3.490       2.344       1.180      2.5909E-03
   2    9.998       8.949       7.891       6.820       5.733       4.627       3.499       2.350       1.184      2.5983E-03
   3    9.998       8.953       7.900       6.834       5.752       4.649       3.518       2.363       1.190      2.6127E-03
   4    9.998       8.958       7.911       6.854       5.783       4.688       3.548       2.382       1.199      2.6323E-03
   5    9.998       8.963       7.922       6.876       5.824       4.753       3.589       2.404       1.208      2.6525E-03
   6    9.998       8.966       7.928       6.890       5.862       4.862       3.629       2.418       1.213      2.6636E-03
   7    9.998       8.964       7.924       6.878       5.827       4.756       3.592       2.406       1.210      2.6552E-03
   8    9.998       8.961       7.915       6.859       5.790       4.695       3.555       2.387       1.202      2.6381E-03
   9    9.998       8.957       7.907       6.844       5.764       4.662       3.529       2.372       1.195      2.6226E-03
  10    9.998       8.955       7.902       6.835       5.752       4.647       3.517       2.364       1.191      2.6139E-03
1
              HEAD IN LAYER   5 AT END OF TIME STEP  25 IN STRESS PERIOD    3
  ---------------------------------------------------------------------------

            1           2           3           4           5           6           7           8           9          10
 ........................................................................................................................
   1    9.998       8.947       7.886       6.812       5.723       4.616       3.489       2.343       1.180      2.5899E-03
   2    9.998       8.949       7.891       6.819       5.732       4.626       3.498       2.350       1.183      2.5972E-03
   3    9.998       8.953       7.899       6.833       5.752       4.649       3.517       2.363       1.190      2.6115E-03
   4    9.998       8.958       7.910       6.853       5.782       4.687       3.548       2.382       1.199      2.6311E-03
   5    9.998       8.963       7.922       6.875       5.822       4.750       3.588       2.403       1.208      2.6512E-03
   6    9.998       8.965       7.928       6.889       5.859       4.844       3.626       2.417       1.213      2.6622E-03
   7    9.998       8.964       7.924       6.878       5.826       4.753       3.591       2.405       1.209      2.6538E-03
   8    9.998       8.960       7.915       6.859       5.789       4.694       3.554       2.387       1.201      2.6369E-03
   9    9.998       8.957       7.906       6.843       5.764       4.661       3.529       2.371       1.194      2.6215E-03
  10    9.998       8.954       7.901       6.835       5.751       4.646       3.516       2.363       1.190      2.6128E-03

 HEAD WILL BE SAVED ON UNIT   51 AT END OF TIME STEP   25, STRESS PERIOD    3

 DRAWDOWN WILL BE SAVED ON UNIT   52 AT END OF TIME STEP   25, STRESS PERIOD    3
1
  VOLUMETRIC BUDGET FOR ENTIRE MODEL AT END OF TIME STEP   25, STRESS PERIOD   3
  ------------------------------------------------------------------------------

     CUMULATIVE VOLUMES      L**3       RATES FOR THIS TIME STEP      L**3/T
     ------------------                 ------------------------

           IN:                                      IN:
           ---                                      ---
             STORAGE =         475.7157               STORAGE =          12.1173
       CONSTANT HEAD =           0.0000         CONSTANT HEAD =           0.0000
               WELLS =       11500.0000                 WELLS =          60.0000
     HEAD DEP BOUNDS =      145066.4844       HEAD DEP BOUNDS =        1137.7736

            TOTAL IN =      157042.2031              TOTAL IN =        1209.8909

          OUT:                                     OUT:
          ----                                     ----
             STORAGE =        7366.7227               STORAGE =           6.8298
       CONSTANT HEAD =           0.0000         CONSTANT HEAD =           0.0000
               WELLS =           0.0000                 WELLS =           0.0000
     HEAD DEP BOUNDS =      149672.0000       HEAD DEP BOUNDS =        1203.0201

           TOTAL OUT =      157038.7188             TOTAL OUT =        1209.8500

            IN - OUT =           3.4844              IN - OUT =       4.0894E-02

 PERCENT DISCREPANCY =           0.00     PERCENT DISCREPANCY =           0.00






         TIME SUMMARY AT END OF TIME STEP   25 IN STRESS PERIOD    3
                    SECONDS     MINUTES      HOURS       DAYS        YEARS
                    -----------------------------------------------------------
   TIME STEP LENGTH  86400.      1440.0      24.000      1.0000     2.73785E-03
 STRESS PERIOD TIME 2.16000E+06  36000.      600.00      25.000     6.84463E-02
         TOTAL TIME 1.08864E+07 1.81440E+05  3024.0      126.00     0.34497    
1
 
 SOLVING FOR HEAD 

 OUTPUT CONTROL FOR STRESS PERIOD    3   TIME STEP   26
    SAVE HEAD FOR ALL LAYERS
    SAVE DRAWDOWN FOR ALL LAYERS
    SAVE BUDGET
    PRINT HEAD FOR ALL LAYERS
    PRINT BUDGET
 UBDSV1 SAVING "         STORAGE" ON UNIT  53 AT TIME STEP 26, STRESS PERIOD   3
 UBDSV2 SAVING "   CONSTANT HEAD" ON UNIT  53 AT TIME STEP 26, STRESS PERIOD   3
 UBDSV1 SAVING "FLOW RIGHT FACE " ON UNIT  53 AT TIME STEP 26, STRESS PERIOD   3
 UBDSV1 SAVING "FLOW FRONT FACE " ON UNIT  53 AT TIME STEP 26, STRESS PERIOD   3
 UBDSV1 SAVING "FLOW LOWER FACE " ON UNIT  53 AT TIME STEP 26, STRESS PERIOD   3

 SAVING SATURATED THICKNESS AND FLOW TERMS ON UNIT   54 FOR MT3DMS
 BY THE LINK-MT3DMS PACKAGE V7 AT TIME STEP   26, STRESS PERIOD    3

1
              HEAD IN LAYER   1 AT END OF TIME STEP  26 IN STRESS PERIOD    3
  ---------------------------------------------------------------------------

            1           2           3           4           5           6           7           8           9          10
 ........................................................................................................................
   1    9.998       8.951       7.890       6.817       5.727       4.620       3.494       2.348       1.185      1.5455E-03
   2    9.998       8.953       7.895       6.824       5.737       4.631       3.503       2.355       1.188      1.5502E-03
   3    9.998       8.957       7.904       6.838       5.757       4.654       3.523       2.369       1.195      1.5594E-03
   4    9.998       8.962       7.915       6.858       5.788       4.694       3.555       2.388       1.204      1.5718E-03
   5    9.998       8.967       7.927       6.881       5.831       4.768       3.598       2.411       1.214      1.5849E-03
   6    9.998       8.969       7.933       6.896       5.876       4.951       3.644       2.426       1.219      1.5921E-03
   7    9.998       8.968       7.929       6.884       5.834       4.771       3.601       2.413       1.215      1.5865E-03
   8    9.998       8.964       7.919       6.864       5.795       4.701       3.561       2.393       1.207      1.5754E-03
   9    9.998       8.961       7.910       6.848       5.769       4.667       3.534       2.377       1.200      1.5655E-03
  10    9.998       8.958       7.905       6.839       5.756       4.651       3.521       2.368       1.196      1.5599E-03
1
              HEAD IN LAYER   2 AT END OF TIME STEP  26 IN STRESS PERIOD    3
  ---------------------------------------------------------------------------

            1           2           3           4           5           6           7           8           9          10
 ........................................................................................................................
   1    9.998       8.949       7.889       6.815       5.726       4.619       3.492       2.346       1.183      2.5409E-03
   2    9.998       8.951       7.893       6.822       5.735       4.629       3.502       2.353       1.186      2.5483E-03
   3    9.998       8.955       7.902       6.836       5.755       4.652       3.521       2.367       1.193      2.5625E-03
   4    9.998       8.961       7.913       6.856       5.786       4.692       3.552       2.386       1.202      2.5822E-03
   5    9.998       8.965       7.925       6.879       5.828       4.764       3.595       2.408       1.212      2.6023E-03
   6    9.998       8.968       7.931       6.893       5.872       4.971       3.640       2.423       1.217      2.6135E-03
   7    9.998       8.966       7.927       6.881       5.831       4.767       3.597       2.410       1.213      2.6049E-03
   8    9.998       8.963       7.917       6.862       5.793       4.699       3.559       2.391       1.205      2.5878E-03
   9    9.998       8.959       7.909       6.846       5.767       4.665       3.532       2.375       1.198      2.5723E-03
  10    9.998       8.957       7.904       6.837       5.754       4.649       3.520       2.367       1.194      2.5636E-03
1
              HEAD IN LAYER   3 AT END OF TIME STEP  26 IN STRESS PERIOD    3
  ---------------------------------------------------------------------------

            1           2           3           4           5           6           7           8           9          10
 ........................................................................................................................
   1    9.998       8.948       7.887       6.814       5.725       4.617       3.491       2.345       1.181      2.5912E-03
   2    9.998       8.950       7.892       6.821       5.734       4.628       3.500       2.351       1.185      2.5986E-03
   3    9.998       8.954       7.901       6.835       5.753       4.650       3.519       2.365       1.191      2.6130E-03
   4    9.998       8.959       7.912       6.855       5.784       4.689       3.550       2.384       1.200      2.6327E-03
   5    9.998       8.964       7.923       6.877       5.825       4.757       3.591       2.405       1.210      2.6529E-03
   6    9.998       8.966       7.929       6.891       5.866       4.902       3.633       2.420       1.215      2.6641E-03
   7    9.998       8.965       7.925       6.879       5.828       4.761       3.594       2.408       1.211      2.6556E-03
   8    9.998       8.961       7.916       6.860       5.791       4.696       3.556       2.389       1.203      2.6385E-03
   9    9.998       8.958       7.908       6.845       5.765       4.663       3.531       2.373       1.196      2.6229E-03
  10    9.998       8.956       7.903       6.836       5.753       4.648       3.518       2.365       1.192      2.6142E-03
1
              HEAD IN LAYER   4 AT END OF TIME STEP  26 IN STRESS PERIOD    3
  ---------------------------------------------------------------------------

            1           2           3           4           5           6           7           8           9          10
 ........................................................................................................................
   1    9.998       8.947       7.887       6.813       5.724       4.616       3.490       2.344       1.180      2.5911E-03
   2    9.998       8.949       7.891       6.820       5.733       4.627       3.499       2.350       1.184      2.5984E-03
   3    9.998       8.953       7.900       6.834       5.752       4.649       3.518       2.363       1.190      2.6127E-03
   4    9.998       8.958       7.911       6.854       5.783       4.687       3.548       2.382       1.199      2.6322E-03
   5    9.998       8.963       7.922       6.875       5.823       4.752       3.589       2.404       1.208      2.6523E-03
   6    9.998       8.966       7.928       6.890       5.862       4.862       3.628       2.418       1.213      2.6633E-03
   7    9.998       8.964       7.924       6.878       5.826       4.756       3.592       2.406       1.209      2.6549E-03
   8    9.998       8.961       7.915       6.859       5.790       4.695       3.555       2.387       1.202      2.6381E-03
   9    9.998       8.957       7.907       6.844       5.764       4.662       3.529       2.372       1.195      2.6227E-03
  10    9.998       8.955       7.902       6.835       5.752       4.647       3.517       2.364       1.191      2.6141E-03
1
              HEAD IN LAYER   5 AT END OF TIME STEP  26 IN STRESS PERIOD    3
  ---------------------------------------------------------------------------

            1           2           3           4           5           6           7           8           9          10
 ........................................................................................................................
   1    9.998       8.947       7.886       6.812       5.723       4.616       3.489       2.343       1.180      2.5901E-03
   2    9.998       8.949       7.891       6.819       5.733       4.626       3.498       2.350       1.183      2.5974E-03
   3    9.998       8.953       7.899       6.833       5.752       4.649       3.517       2.363       1.190      2.6116E-03
   4    9.998       8.958       7.910       6.853       5.782       4.687       3.547       2.382       1.199      2.6310E-03
   5    9.998       8.963       7.922       6.875       5.822       4.749       3.588       2.403       1.208      2.6509E-03
   6    9.998       8.965       7.928       6.889       5.859       4.843       3.625       2.417       1.213      2.6619E-03
   7    9.998       8.964       7.924       6.877       5.825       4.753       3.591       2.405       1.209      2.6536E-03
   8    9.998       8.960       7.915       6.859       5.789       4.694       3.554       2.387       1.201      2.6368E-03
   9    9.998       8.957       7.906       6.843       5.764       4.661       3.529       2.371       1.194      2.6216E-03
  10    9.998       8.955       7.901       6.835       5.751       4.646       3.516       2.363       1.190      2.6130E-03

 HEAD WILL BE SAVED ON UNIT   51 AT END OF TIME STEP   26, STRESS PERIOD    3

 DRAWDOWN WILL BE SAVED ON UNIT   52 AT END OF TIME STEP   26, STRESS PERIOD    3
1
  VOLUMETRIC BUDGET FOR ENTIRE MODEL AT END OF TIME STEP   26, STRESS PERIOD   3
  ------------------------------------------------------------------------------

     CUMULATIVE VOLUMES      L**3       RATES FOR THIS TIME STEP      L**3/T
     ------------------                 ------------------------

           IN:                                      IN:
           ---                                      ---
             STORAGE =         487.4758               STORAGE =          11.7600
       CONSTANT HEAD =           0.0000         CONSTANT HEAD =           0.0000
               WELLS =       11560.0000                 WELLS =          60.0000
     HEAD DEP BOUNDS =      146204.2031       HEAD DEP BOUNDS =        1137.7130

            TOTAL IN =      158251.6719              TOTAL IN =        1209.4730

          OUT:                                     OUT:
          ----                                     ----
             STORAGE =        7373.1533               STORAGE =           6.4305
       CONSTANT HEAD =           0.0000         CONSTANT HEAD =           0.0000
               WELLS =           0.0000                 WELLS =           0.0000
     HEAD DEP BOUNDS =      150875.0000       HEAD DEP BOUNDS =        1203.0073

           TOTAL OUT =      158248.1562             TOTAL OUT =        1209.4377

            IN - OUT =           3.5156              IN - OUT =       3.5278E-02

 PERCENT DISCREPANCY =           0.00     PERCENT DISCREPANCY =           0.00






         TIME SUMMARY AT END OF TIME STEP   26 IN STRESS PERIOD    3
                    SECONDS     MINUTES      HOURS       DAYS        YEARS
                    -----------------------------------------------------------
   TIME STEP LENGTH  86400.      1440.0      24.000      1.0000     2.73785E-03
 STRESS PERIOD TIME 2.24640E+06  37440.      624.00      26.000     7.11841E-02
         TOTAL TIME 1.09728E+07 1.82880E+05  3048.0      127.00     0.34771    
1
 
 SOLVING FOR HEAD 

 OUTPUT CONTROL FOR STRESS PERIOD    3   TIME STEP   27
    SAVE HEAD FOR ALL LAYERS
    SAVE DRAWDOWN FOR ALL LAYERS
    SAVE BUDGET
    PRINT HEAD FOR ALL LAYERS
    PRINT BUDGET
 UBDSV1 SAVING "         STORAGE" ON UNIT  53 AT TIME STEP 27, STRESS PERIOD   3
 UBDSV2 SAVING "   CONSTANT HEAD" ON UNIT  53 AT TIME STEP 27, STRESS PERIOD   3
 UBDSV1 SAVING "FLOW RIGHT FACE " ON UNIT  53 AT TIME STEP 27, STRESS PERIOD   3
 UBDSV1 SAVING "FLOW FRONT FACE " ON UNIT  53 AT TIME STEP 27, STRESS PERIOD   3
 UBDSV1 SAVING "FLOW LOWER FACE " ON UNIT  53 AT TIME STEP 27, STRESS PERIOD   3

 SAVING SATURATED THICKNESS AND FLOW TERMS ON UNIT   54 FOR MT3DMS
 BY THE LINK-MT3DMS PACKAGE V7 AT TIME STEP   27, STRESS PERIOD    3

1
              HEAD IN LAYER   1 AT END OF TIME STEP  27 IN STRESS PERIOD    3
  ---------------------------------------------------------------------------

            1           2           3           4           5           6           7           8           9          10
 ........................................................................................................................
   1    9.998       8.951       7.891       6.817       5.728       4.621       3.494       2.348       1.185      1.5457E-03
   2    9.998       8.953       7.895       6.824       5.737       4.631       3.504       2.355       1.188      1.5503E-03
   3    9.998       8.957       7.904       6.838       5.757       4.654       3.523       2.369       1.195      1.5594E-03
   4    9.998       8.962       7.915       6.858       5.788       4.694       3.554       2.388       1.204      1.5718E-03
   5    9.998       8.967       7.927       6.881       5.830       4.767       3.597       2.410       1.214      1.5847E-03
   6    9.998       8.969       7.933       6.896       5.875       4.950       3.644       2.425       1.219      1.5918E-03
   7    9.998       8.968       7.928       6.883       5.833       4.770       3.600       2.413       1.215      1.5864E-03
   8    9.998       8.964       7.919       6.864       5.795       4.701       3.561       2.393       1.207      1.5754E-03
   9    9.998       8.961       7.911       6.848       5.769       4.667       3.534       2.377       1.200      1.5656E-03
  10    9.998       8.959       7.906       6.839       5.756       4.651       3.521       2.369       1.196      1.5601E-03
1
              HEAD IN LAYER   2 AT END OF TIME STEP  27 IN STRESS PERIOD    3
  ---------------------------------------------------------------------------

            1           2           3           4           5           6           7           8           9          10
 ........................................................................................................................
   1    9.998       8.949       7.889       6.815       5.726       4.619       3.492       2.347       1.183      2.5412E-03
   2    9.998       8.952       7.893       6.822       5.736       4.630       3.502       2.353       1.187      2.5484E-03
   3    9.998       8.956       7.902       6.836       5.755       4.652       3.521       2.367       1.193      2.5626E-03
   4    9.998       8.961       7.913       6.856       5.786       4.691       3.552       2.386       1.202      2.5821E-03
   5    9.998       8.965       7.925       6.878       5.827       4.763       3.594       2.408       1.212      2.6021E-03
   6    9.998       8.968       7.931       6.893       5.872       4.970       3.639       2.422       1.217      2.6132E-03
   7    9.998       8.966       7.927       6.881       5.831       4.766       3.597       2.410       1.213      2.6047E-03
   8    9.998       8.963       7.917       6.862       5.793       4.698       3.558       2.391       1.205      2.5878E-03
   9    9.998       8.959       7.909       6.846       5.767       4.665       3.532       2.375       1.198      2.5724E-03
  10    9.998       8.957       7.904       6.838       5.754       4.649       3.520       2.367       1.194      2.5638E-03
1
              HEAD IN LAYER   3 AT END OF TIME STEP  27 IN STRESS PERIOD    3
  ---------------------------------------------------------------------------

            1           2           3           4           5           6           7           8           9          10
 ........................................................................................................................
   1    9.998       8.948       7.888       6.814       5.725       4.618       3.491       2.345       1.182      2.5914E-03
   2    9.998       8.950       7.892       6.821       5.734       4.628       3.500       2.352       1.185      2.5987E-03
   3    9.998       8.954       7.901       6.835       5.753       4.650       3.519       2.365       1.191      2.6130E-03
   4    9.998       8.959       7.912       6.855       5.784       4.689       3.550       2.384       1.200      2.6326E-03
   5    9.998       8.964       7.923       6.876       5.825       4.757       3.591       2.405       1.209      2.6526E-03
   6    9.998       8.966       7.929       6.891       5.866       4.901       3.633       2.420       1.215      2.6637E-03
   7    9.998       8.965       7.925       6.879       5.828       4.760       3.594       2.407       1.211      2.6553E-03
   8    9.998       8.961       7.916       6.860       5.791       4.696       3.556       2.389       1.203      2.6384E-03
   9    9.998       8.958       7.908       6.845       5.765       4.663       3.531       2.373       1.196      2.6230E-03
  10    9.998       8.956       7.903       6.836       5.753       4.648       3.518       2.365       1.192      2.6144E-03
1
              HEAD IN LAYER   4 AT END OF TIME STEP  27 IN STRESS PERIOD    3
  ---------------------------------------------------------------------------

            1           2           3           4           5           6           7           8           9          10
 ........................................................................................................................
   1    9.998       8.947       7.887       6.813       5.724       4.617       3.490       2.344       1.180      2.5913E-03
   2    9.998       8.950       7.891       6.820       5.733       4.627       3.499       2.350       1.184      2.5986E-03
   3    9.998       8.953       7.900       6.834       5.752       4.649       3.518       2.363       1.190      2.6128E-03
   4    9.998       8.959       7.911       6.853       5.782       4.687       3.548       2.382       1.199      2.6321E-03
   5    9.998       8.963       7.922       6.875       5.823       4.752       3.588       2.403       1.208      2.6520E-03
   6    9.998       8.966       7.928       6.889       5.861       4.861       3.627       2.418       1.213      2.6630E-03
   7    9.998       8.964       7.924       6.878       5.826       4.755       3.591       2.406       1.209      2.6547E-03
   8    9.998       8.961       7.915       6.859       5.789       4.694       3.555       2.387       1.202      2.6380E-03
   9    9.998       8.957       7.907       6.844       5.764       4.662       3.529       2.372       1.195      2.6228E-03
  10    9.998       8.955       7.902       6.836       5.752       4.647       3.517       2.364       1.191      2.6142E-03
1
              HEAD IN LAYER   5 AT END OF TIME STEP  27 IN STRESS PERIOD    3
  ---------------------------------------------------------------------------

            1           2           3           4           5           6           7           8           9          10
 ........................................................................................................................
   1    9.998       8.947       7.886       6.813       5.723       4.616       3.489       2.343       1.180      2.5903E-03
   2    9.998       8.949       7.891       6.820       5.733       4.627       3.499       2.350       1.183      2.5975E-03
   3    9.998       8.953       7.899       6.833       5.752       4.649       3.517       2.363       1.190      2.6116E-03
   4    9.998       8.958       7.910       6.853       5.782       4.686       3.547       2.381       1.198      2.6309E-03
   5    9.998       8.963       7.921       6.875       5.821       4.749       3.587       2.403       1.207      2.6506E-03
   6    9.998       8.965       7.927       6.889       5.858       4.842       3.624       2.416       1.212      2.6615E-03
   7    9.998       8.964       7.923       6.877       5.825       4.752       3.590       2.405       1.209      2.6533E-03
   8    9.998       8.960       7.915       6.859       5.789       4.694       3.554       2.386       1.201      2.6367E-03
   9    9.998       8.957       7.906       6.843       5.764       4.661       3.529       2.371       1.194      2.6216E-03
  10    9.998       8.955       7.902       6.835       5.752       4.646       3.517       2.363       1.190      2.6131E-03

 HEAD WILL BE SAVED ON UNIT   51 AT END OF TIME STEP   27, STRESS PERIOD    3

 DRAWDOWN WILL BE SAVED ON UNIT   52 AT END OF TIME STEP   27, STRESS PERIOD    3
1
  VOLUMETRIC BUDGET FOR ENTIRE MODEL AT END OF TIME STEP   27, STRESS PERIOD   3
  ------------------------------------------------------------------------------

     CUMULATIVE VOLUMES      L**3       RATES FOR THIS TIME STEP      L**3/T
     ------------------                 ------------------------

           IN:                                      IN:
           ---                                      ---
             STORAGE =         498.8887               STORAGE =          11.4129
       CONSTANT HEAD =           0.0000         CONSTANT HEAD =           0.0000
               WELLS =       11620.0000                 WELLS =          60.0000
     HEAD DEP BOUNDS =      147341.8594       HEAD DEP BOUNDS =        1137.6638

            TOTAL IN =      159460.7500              TOTAL IN =        1209.0767

          OUT:                                     OUT:
          ----                                     ----
             STORAGE =        7379.1968               STORAGE =           6.0435
       CONSTANT HEAD =           0.0000         CONSTANT HEAD =           0.0000
               WELLS =           0.0000                 WELLS =           0.0000
     HEAD DEP BOUNDS =      152077.9844       HEAD DEP BOUNDS =        1202.9915

           TOTAL OUT =      159457.1875             TOTAL OUT =        1209.0349

            IN - OUT =           3.5625              IN - OUT =       4.1748E-02

 PERCENT DISCREPANCY =           0.00     PERCENT DISCREPANCY =           0.00






         TIME SUMMARY AT END OF TIME STEP   27 IN STRESS PERIOD    3
                    SECONDS     MINUTES      HOURS       DAYS        YEARS
                    -----------------------------------------------------------
   TIME STEP LENGTH  86400.      1440.0      24.000      1.0000     2.73785E-03
 STRESS PERIOD TIME 2.33280E+06  38880.      648.00      27.000     7.39220E-02
         TOTAL TIME 1.10592E+07 1.84320E+05  3072.0      128.00     0.35044    
1
 
 SOLVING FOR HEAD 

 OUTPUT CONTROL FOR STRESS PERIOD    3   TIME STEP   28
    SAVE HEAD FOR ALL LAYERS
    SAVE DRAWDOWN FOR ALL LAYERS
    SAVE BUDGET
    PRINT HEAD FOR ALL LAYERS
    PRINT BUDGET
 UBDSV1 SAVING "         STORAGE" ON UNIT  53 AT TIME STEP 28, STRESS PERIOD   3
 UBDSV2 SAVING "   CONSTANT HEAD" ON UNIT  53 AT TIME STEP 28, STRESS PERIOD   3
 UBDSV1 SAVING "FLOW RIGHT FACE " ON UNIT  53 AT TIME STEP 28, STRESS PERIOD   3
 UBDSV1 SAVING "FLOW FRONT FACE " ON UNIT  53 AT TIME STEP 28, STRESS PERIOD   3
 UBDSV1 SAVING "FLOW LOWER FACE " ON UNIT  53 AT TIME STEP 28, STRESS PERIOD   3

 SAVING SATURATED THICKNESS AND FLOW TERMS ON UNIT   54 FOR MT3DMS
 BY THE LINK-MT3DMS PACKAGE V7 AT TIME STEP   28, STRESS PERIOD    3

1
              HEAD IN LAYER   1 AT END OF TIME STEP  28 IN STRESS PERIOD    3
  ---------------------------------------------------------------------------

            1           2           3           4           5           6           7           8           9          10
 ........................................................................................................................
   1    9.998       8.951       7.891       6.817       5.728       4.621       3.494       2.349       1.185      1.5458E-03
   2    9.998       8.953       7.895       6.824       5.737       4.631       3.504       2.355       1.189      1.5505E-03
   3    9.998       8.957       7.904       6.838       5.757       4.654       3.523       2.369       1.195      1.5594E-03
   4    9.998       8.962       7.915       6.858       5.788       4.694       3.554       2.388       1.204      1.5717E-03
   5    9.998       8.967       7.926       6.880       5.830       4.766       3.597       2.410       1.214      1.5846E-03
   6    9.998       8.969       7.933       6.895       5.874       4.949       3.643       2.425       1.219      1.5916E-03
   7    9.998       8.968       7.928       6.883       5.833       4.770       3.600       2.412       1.215      1.5861E-03
   8    9.998       8.964       7.919       6.864       5.795       4.701       3.561       2.393       1.207      1.5754E-03
   9    9.998       8.961       7.911       6.848       5.769       4.667       3.534       2.377       1.200      1.5657E-03
  10    9.998       8.959       7.906       6.839       5.756       4.651       3.522       2.369       1.196      1.5602E-03
1
              HEAD IN LAYER   2 AT END OF TIME STEP  28 IN STRESS PERIOD    3
  ---------------------------------------------------------------------------

            1           2           3           4           5           6           7           8           9          10
 ........................................................................................................................
   1    9.998       8.950       7.889       6.815       5.726       4.619       3.493       2.347       1.183      2.5414E-03
   2    9.998       8.952       7.894       6.822       5.736       4.630       3.502       2.353       1.187      2.5486E-03
   3    9.998       8.956       7.902       6.836       5.755       4.652       3.521       2.367       1.193      2.5627E-03
   4    9.998       8.961       7.913       6.856       5.785       4.691       3.552       2.386       1.202      2.5820E-03
   5    9.998       8.965       7.925       6.878       5.827       4.762       3.593       2.407       1.211      2.6018E-03
   6    9.998       8.968       7.931       6.893       5.871       4.969       3.638       2.422       1.217      2.6128E-03
   7    9.998       8.966       7.926       6.881       5.830       4.766       3.596       2.410       1.213      2.6044E-03
   8    9.998       8.963       7.918       6.862       5.792       4.698       3.558       2.391       1.205      2.5877E-03
   9    9.998       8.959       7.909       6.846       5.767       4.665       3.532       2.375       1.198      2.5725E-03
  10    9.998       8.957       7.904       6.838       5.755       4.650       3.520       2.367       1.194      2.5640E-03
1
              HEAD IN LAYER   3 AT END OF TIME STEP  28 IN STRESS PERIOD    3
  ---------------------------------------------------------------------------

            1           2           3           4           5           6           7           8           9          10
 ........................................................................................................................
   1    9.998       8.948       7.888       6.814       5.725       4.618       3.491       2.345       1.182      2.5916E-03
   2    9.998       8.950       7.892       6.821       5.734       4.628       3.500       2.352       1.185      2.5989E-03
   3    9.998       8.954       7.901       6.835       5.753       4.650       3.519       2.365       1.191      2.6131E-03
   4    9.998       8.959       7.912       6.854       5.783       4.689       3.549       2.383       1.200      2.6324E-03
   5    9.998       8.964       7.923       6.876       5.824       4.756       3.590       2.405       1.209      2.6524E-03
   6    9.998       8.966       7.929       6.891       5.865       4.900       3.632       2.419       1.214      2.6634E-03
   7    9.998       8.965       7.925       6.879       5.827       4.760       3.593       2.407       1.211      2.6550E-03
   8    9.998       8.962       7.916       6.860       5.790       4.696       3.556       2.388       1.203      2.6383E-03
   9    9.998       8.958       7.908       6.845       5.766       4.663       3.531       2.373       1.196      2.6231E-03
  10    9.998       8.956       7.903       6.837       5.753       4.648       3.518       2.365       1.192      2.6145E-03
1
              HEAD IN LAYER   4 AT END OF TIME STEP  28 IN STRESS PERIOD    3
  ---------------------------------------------------------------------------

            1           2           3           4           5           6           7           8           9          10
 ........................................................................................................................
   1    9.998       8.948       7.887       6.813       5.724       4.617       3.490       2.344       1.181      2.5915E-03
   2    9.998       8.950       7.891       6.820       5.733       4.627       3.499       2.351       1.184      2.5987E-03
   3    9.998       8.954       7.900       6.834       5.752       4.649       3.518       2.363       1.190      2.6128E-03
   4    9.998       8.959       7.911       6.853       5.782       4.687       3.548       2.382       1.199      2.6320E-03
   5    9.998       8.963       7.922       6.875       5.822       4.751       3.588       2.403       1.208      2.6517E-03
   6    9.998       8.966       7.928       6.889       5.860       4.860       3.627       2.417       1.213      2.6626E-03
   7    9.998       8.964       7.924       6.878       5.825       4.754       3.591       2.405       1.209      2.6544E-03
   8    9.998       8.961       7.915       6.859       5.789       4.694       3.554       2.387       1.202      2.6379E-03
   9    9.998       8.957       7.907       6.844       5.764       4.662       3.529       2.372       1.195      2.6228E-03
  10    9.998       8.955       7.902       6.836       5.752       4.647       3.517       2.364       1.191      2.6144E-03
1
              HEAD IN LAYER   5 AT END OF TIME STEP  28 IN STRESS PERIOD    3
  ---------------------------------------------------------------------------

            1           2           3           4           5           6           7           8           9          10
 ........................................................................................................................
   1    9.998       8.947       7.887       6.813       5.724       4.616       3.490       2.344       1.180      2.5905E-03
   2    9.998       8.949       7.891       6.820       5.733       4.627       3.499       2.350       1.183      2.5977E-03
   3    9.998       8.953       7.899       6.833       5.752       4.649       3.517       2.363       1.190      2.6117E-03
   4    9.998       8.958       7.910       6.853       5.781       4.686       3.547       2.381       1.198      2.6308E-03
   5    9.998       8.963       7.921       6.874       5.821       4.748       3.587       2.402       1.207      2.6504E-03
   6    9.998       8.965       7.927       6.888       5.858       4.842       3.624       2.416       1.212      2.6612E-03
   7    9.998       8.964       7.923       6.877       5.824       4.752       3.590       2.405       1.209      2.6531E-03
   8    9.998       8.960       7.915       6.859       5.789       4.693       3.554       2.386       1.201      2.6366E-03
   9    9.998       8.957       7.906       6.844       5.764       4.661       3.529       2.371       1.194      2.6217E-03
  10    9.998       8.955       7.902       6.835       5.752       4.647       3.517       2.363       1.190      2.6133E-03

 HEAD WILL BE SAVED ON UNIT   51 AT END OF TIME STEP   28, STRESS PERIOD    3

 DRAWDOWN WILL BE SAVED ON UNIT   52 AT END OF TIME STEP   28, STRESS PERIOD    3
1
  VOLUMETRIC BUDGET FOR ENTIRE MODEL AT END OF TIME STEP   28, STRESS PERIOD   3
  ------------------------------------------------------------------------------

     CUMULATIVE VOLUMES      L**3       RATES FOR THIS TIME STEP      L**3/T
     ------------------                 ------------------------

           IN:                                      IN:
           ---                                      ---
             STORAGE =         509.9591               STORAGE =          11.0705
       CONSTANT HEAD =           0.0000         CONSTANT HEAD =           0.0000
               WELLS =       11680.0000                 WELLS =          60.0000
     HEAD DEP BOUNDS =      148479.4844       HEAD DEP BOUNDS =        1137.6184

            TOTAL IN =      160669.4375              TOTAL IN =        1208.6888

          OUT:                                     OUT:
          ----                                     ----
             STORAGE =        7384.8770               STORAGE =           5.6800
       CONSTANT HEAD =           0.0000         CONSTANT HEAD =           0.0000
               WELLS =           0.0000                 WELLS =           0.0000
     HEAD DEP BOUNDS =      153280.9531       HEAD DEP BOUNDS =        1202.9720

           TOTAL OUT =      160665.8281             TOTAL OUT =        1208.6520

            IN - OUT =           3.6094              IN - OUT =       3.6865E-02

 PERCENT DISCREPANCY =           0.00     PERCENT DISCREPANCY =           0.00






         TIME SUMMARY AT END OF TIME STEP   28 IN STRESS PERIOD    3
                    SECONDS     MINUTES      HOURS       DAYS        YEARS
                    -----------------------------------------------------------
   TIME STEP LENGTH  86400.      1440.0      24.000      1.0000     2.73785E-03
 STRESS PERIOD TIME 2.41920E+06  40320.      672.00      28.000     7.66598E-02
         TOTAL TIME 1.11456E+07 1.85760E+05  3096.0      129.00     0.35318    
1
 
 SOLVING FOR HEAD 

 OUTPUT CONTROL FOR STRESS PERIOD    3   TIME STEP   29
    SAVE HEAD FOR ALL LAYERS
    SAVE DRAWDOWN FOR ALL LAYERS
    SAVE BUDGET
    PRINT HEAD FOR ALL LAYERS
    PRINT BUDGET
 UBDSV1 SAVING "         STORAGE" ON UNIT  53 AT TIME STEP 29, STRESS PERIOD   3
 UBDSV2 SAVING "   CONSTANT HEAD" ON UNIT  53 AT TIME STEP 29, STRESS PERIOD   3
 UBDSV1 SAVING "FLOW RIGHT FACE " ON UNIT  53 AT TIME STEP 29, STRESS PERIOD   3
 UBDSV1 SAVING "FLOW FRONT FACE " ON UNIT  53 AT TIME STEP 29, STRESS PERIOD   3
 UBDSV1 SAVING "FLOW LOWER FACE " ON UNIT  53 AT TIME STEP 29, STRESS PERIOD   3

 SAVING SATURATED THICKNESS AND FLOW TERMS ON UNIT   54 FOR MT3DMS
 BY THE LINK-MT3DMS PACKAGE V7 AT TIME STEP   29, STRESS PERIOD    3

1
              HEAD IN LAYER   1 AT END OF TIME STEP  29 IN STRESS PERIOD    3
  ---------------------------------------------------------------------------

            1           2           3           4           5           6           7           8           9          10
 ........................................................................................................................
   1    9.998       8.951       7.891       6.817       5.728       4.621       3.495       2.349       1.185      1.5459E-03
   2    9.998       8.953       7.895       6.824       5.738       4.632       3.504       2.355       1.189      1.5506E-03
   3    9.998       8.957       7.904       6.838       5.757       4.654       3.523       2.369       1.195      1.5595E-03
   4    9.998       8.962       7.915       6.858       5.788       4.693       3.554       2.388       1.204      1.5717E-03
   5    9.998       8.967       7.926       6.880       5.829       4.766       3.596       2.410       1.214      1.5844E-03
   6    9.998       8.969       7.932       6.895       5.874       4.948       3.642       2.425       1.219      1.5914E-03
   7    9.998       8.968       7.928       6.883       5.832       4.769       3.599       2.412       1.215      1.5860E-03
   8    9.998       8.965       7.919       6.864       5.794       4.701       3.560       2.393       1.207      1.5753E-03
   9    9.998       8.961       7.911       6.848       5.769       4.667       3.535       2.377       1.200      1.5657E-03
  10    9.998       8.959       7.906       6.840       5.756       4.652       3.522       2.369       1.196      1.5603E-03
1
              HEAD IN LAYER   2 AT END OF TIME STEP  29 IN STRESS PERIOD    3
  ---------------------------------------------------------------------------

            1           2           3           4           5           6           7           8           9          10
 ........................................................................................................................
   1    9.998       8.950       7.889       6.816       5.727       4.620       3.493       2.347       1.183      2.5416E-03
   2    9.998       8.952       7.894       6.823       5.736       4.630       3.502       2.354       1.187      2.5488E-03
   3    9.998       8.956       7.902       6.836       5.755       4.652       3.521       2.367       1.193      2.5627E-03
   4    9.998       8.961       7.913       6.856       5.785       4.691       3.551       2.385       1.202      2.5819E-03
   5    9.998       8.965       7.924       6.878       5.826       4.762       3.593       2.407       1.211      2.6016E-03
   6    9.998       8.968       7.930       6.892       5.870       4.968       3.638       2.422       1.216      2.6125E-03
   7    9.998       8.966       7.926       6.881       5.830       4.765       3.596       2.409       1.213      2.6042E-03
   8    9.998       8.963       7.918       6.862       5.792       4.698       3.558       2.390       1.205      2.5876E-03
   9    9.998       8.959       7.909       6.846       5.767       4.665       3.532       2.375       1.198      2.5726E-03
  10    9.998       8.957       7.904       6.838       5.755       4.650       3.520       2.367       1.194      2.5641E-03
1
              HEAD IN LAYER   3 AT END OF TIME STEP  29 IN STRESS PERIOD    3
  ---------------------------------------------------------------------------

            1           2           3           4           5           6           7           8           9          10
 ........................................................................................................................
   1    9.998       8.948       7.888       6.814       5.725       4.618       3.491       2.345       1.182      2.5918E-03
   2    9.998       8.950       7.892       6.821       5.734       4.628       3.500       2.352       1.185      2.5990E-03
   3    9.998       8.954       7.901       6.835       5.754       4.650       3.519       2.365       1.191      2.6131E-03
   4    9.998       8.959       7.912       6.854       5.783       4.688       3.549       2.383       1.200      2.6323E-03
   5    9.998       8.964       7.923       6.876       5.824       4.756       3.590       2.405       1.209      2.6521E-03
   6    9.998       8.966       7.929       6.890       5.865       4.900       3.631       2.419       1.214      2.6631E-03
   7    9.998       8.965       7.925       6.879       5.827       4.759       3.593       2.407       1.210      2.6548E-03
   8    9.998       8.962       7.916       6.860       5.790       4.696       3.556       2.388       1.203      2.6382E-03
   9    9.998       8.958       7.908       6.845       5.766       4.663       3.531       2.373       1.196      2.6232E-03
  10    9.998       8.956       7.903       6.837       5.753       4.648       3.518       2.365       1.192      2.6147E-03
1
              HEAD IN LAYER   4 AT END OF TIME STEP  29 IN STRESS PERIOD    3
  ---------------------------------------------------------------------------

            1           2           3           4           5           6           7           8           9          10
 ........................................................................................................................
   1    9.998       8.948       7.887       6.814       5.724       4.617       3.490       2.344       1.181      2.5917E-03
   2    9.998       8.950       7.892       6.820       5.734       4.627       3.499       2.351       1.184      2.5989E-03
   3    9.998       8.954       7.900       6.834       5.752       4.649       3.518       2.363       1.190      2.6128E-03
   4    9.998       8.959       7.911       6.853       5.782       4.687       3.547       2.382       1.199      2.6319E-03
   5    9.998       8.963       7.922       6.875       5.822       4.751       3.587       2.403       1.208      2.6514E-03
   6    9.998       8.966       7.928       6.889       5.860       4.860       3.626       2.417       1.213      2.6623E-03
   7    9.998       8.964       7.924       6.877       5.825       4.754       3.591       2.405       1.209      2.6542E-03
   8    9.998       8.961       7.915       6.859       5.789       4.694       3.554       2.387       1.202      2.6378E-03
   9    9.998       8.957       7.907       6.844       5.765       4.662       3.529       2.372       1.195      2.6229E-03
  10    9.998       8.955       7.902       6.836       5.752       4.647       3.517       2.364       1.191      2.6145E-03
1
              HEAD IN LAYER   5 AT END OF TIME STEP  29 IN STRESS PERIOD    3
  ---------------------------------------------------------------------------

            1           2           3           4           5           6           7           8           9          10
 ........................................................................................................................
   1    9.998       8.947       7.887       6.813       5.724       4.617       3.490       2.344       1.180      2.5906E-03
   2    9.998       8.949       7.891       6.820       5.733       4.627       3.499       2.350       1.183      2.5978E-03
   3    9.998       8.953       7.899       6.834       5.752       4.649       3.517       2.363       1.190      2.6117E-03
   4    9.998       8.958       7.910       6.853       5.781       4.686       3.547       2.381       1.198      2.6306E-03
   5    9.998       8.963       7.921       6.874       5.821       4.748       3.586       2.402       1.207      2.6501E-03
   6    9.998       8.965       7.927       6.888       5.857       4.841       3.623       2.416       1.212      2.6609E-03
   7    9.998       8.964       7.923       6.877       5.824       4.751       3.589       2.404       1.208      2.6528E-03
   8    9.998       8.960       7.915       6.859       5.788       4.693       3.553       2.386       1.201      2.6365E-03
   9    9.998       8.957       7.907       6.844       5.764       4.661       3.529       2.371       1.194      2.6217E-03
  10    9.998       8.955       7.902       6.835       5.752       4.647       3.517       2.363       1.190      2.6134E-03

 HEAD WILL BE SAVED ON UNIT   51 AT END OF TIME STEP   29, STRESS PERIOD    3

 DRAWDOWN WILL BE SAVED ON UNIT   52 AT END OF TIME STEP   29, STRESS PERIOD    3
1
  VOLUMETRIC BUDGET FOR ENTIRE MODEL AT END OF TIME STEP   29, STRESS PERIOD   3
  ------------------------------------------------------------------------------

     CUMULATIVE VOLUMES      L**3       RATES FOR THIS TIME STEP      L**3/T
     ------------------                 ------------------------

           IN:                                      IN:
           ---                                      ---
             STORAGE =         520.7089               STORAGE =          10.7498
       CONSTANT HEAD =           0.0000         CONSTANT HEAD =           0.0000
               WELLS =       11740.0000                 WELLS =          60.0000
     HEAD DEP BOUNDS =      149617.0625       HEAD DEP BOUNDS =        1137.5765

            TOTAL IN =      161877.7656              TOTAL IN =        1208.3263

          OUT:                                     OUT:
          ----                                     ----
             STORAGE =        7390.2100               STORAGE =           5.3328
       CONSTANT HEAD =           0.0000         CONSTANT HEAD =           0.0000
               WELLS =           0.0000                 WELLS =           0.0000
     HEAD DEP BOUNDS =      154483.9062       HEAD DEP BOUNDS =        1202.9503

           TOTAL OUT =      161874.1094             TOTAL OUT =        1208.2831

            IN - OUT =           3.6562              IN - OUT =       4.3213E-02

 PERCENT DISCREPANCY =           0.00     PERCENT DISCREPANCY =           0.00






         TIME SUMMARY AT END OF TIME STEP   29 IN STRESS PERIOD    3
                    SECONDS     MINUTES      HOURS       DAYS        YEARS
                    -----------------------------------------------------------
   TIME STEP LENGTH  86400.      1440.0      24.000      1.0000     2.73785E-03
 STRESS PERIOD TIME 2.50560E+06  41760.      696.00      29.000     7.93977E-02
         TOTAL TIME 1.12320E+07 1.87200E+05  3120.0      130.00     0.35592    
1
 
 SOLVING FOR HEAD 

 OUTPUT CONTROL FOR STRESS PERIOD    3   TIME STEP   30
    SAVE HEAD FOR ALL LAYERS
    SAVE DRAWDOWN FOR ALL LAYERS
    SAVE BUDGET
    PRINT HEAD FOR ALL LAYERS
    PRINT BUDGET
 UBDSV1 SAVING "         STORAGE" ON UNIT  53 AT TIME STEP 30, STRESS PERIOD   3
 UBDSV2 SAVING "   CONSTANT HEAD" ON UNIT  53 AT TIME STEP 30, STRESS PERIOD   3
 UBDSV1 SAVING "FLOW RIGHT FACE " ON UNIT  53 AT TIME STEP 30, STRESS PERIOD   3
 UBDSV1 SAVING "FLOW FRONT FACE " ON UNIT  53 AT TIME STEP 30, STRESS PERIOD   3
 UBDSV1 SAVING "FLOW LOWER FACE " ON UNIT  53 AT TIME STEP 30, STRESS PERIOD   3

 SAVING SATURATED THICKNESS AND FLOW TERMS ON UNIT   54 FOR MT3DMS
 BY THE LINK-MT3DMS PACKAGE V7 AT TIME STEP   30, STRESS PERIOD    3

1
              HEAD IN LAYER   1 AT END OF TIME STEP  30 IN STRESS PERIOD    3
  ---------------------------------------------------------------------------

            1           2           3           4           5           6           7           8           9          10
 ........................................................................................................................
   1    9.998       8.951       7.891       6.817       5.728       4.621       3.495       2.349       1.185      1.5461E-03
   2    9.998       8.953       7.896       6.824       5.738       4.632       3.504       2.356       1.189      1.5506E-03
   3    9.998       8.957       7.904       6.838       5.757       4.654       3.523       2.369       1.195      1.5595E-03
   4    9.998       8.962       7.915       6.858       5.787       4.693       3.554       2.388       1.204      1.5716E-03
   5    9.998       8.967       7.926       6.880       5.829       4.765       3.596       2.409       1.213      1.5842E-03
   6    9.998       8.969       7.932       6.895       5.873       4.947       3.641       2.424       1.219      1.5912E-03
   7    9.998       8.968       7.928       6.883       5.832       4.768       3.599       2.412       1.215      1.5859E-03
   8    9.998       8.965       7.919       6.864       5.794       4.700       3.560       2.393       1.207      1.5753E-03
   9    9.998       8.961       7.911       6.848       5.769       4.667       3.535       2.377       1.200      1.5658E-03
  10    9.998       8.959       7.906       6.840       5.757       4.652       3.522       2.369       1.196      1.5604E-03
1
              HEAD IN LAYER   2 AT END OF TIME STEP  30 IN STRESS PERIOD    3
  ---------------------------------------------------------------------------

            1           2           3           4           5           6           7           8           9          10
 ........................................................................................................................
   1    9.998       8.950       7.889       6.816       5.727       4.620       3.493       2.347       1.183      2.5418E-03
   2    9.998       8.952       7.894       6.823       5.736       4.630       3.502       2.354       1.187      2.5489E-03
   3    9.998       8.956       7.902       6.837       5.755       4.652       3.521       2.367       1.193      2.5628E-03
   4    9.998       8.961       7.913       6.856       5.785       4.690       3.551       2.385       1.202      2.5818E-03
   5    9.998       8.965       7.924       6.878       5.826       4.761       3.592       2.407       1.211      2.6013E-03
   6    9.998       8.968       7.930       6.892       5.870       4.968       3.637       2.421       1.216      2.6121E-03
   7    9.998       8.966       7.926       6.880       5.829       4.764       3.595       2.409       1.212      2.6039E-03
   8    9.998       8.963       7.918       6.862       5.792       4.698       3.558       2.390       1.205      2.5875E-03
   9    9.998       8.959       7.909       6.847       5.767       4.665       3.532       2.375       1.198      2.5726E-03
  10    9.998       8.957       7.905       6.838       5.755       4.650       3.520       2.367       1.194      2.5643E-03
1
              HEAD IN LAYER   3 AT END OF TIME STEP  30 IN STRESS PERIOD    3
  ---------------------------------------------------------------------------

            1           2           3           4           5           6           7           8           9          10
 ........................................................................................................................
   1    9.998       8.948       7.888       6.815       5.725       4.618       3.492       2.346       1.182      2.5920E-03
   2    9.998       8.951       7.893       6.821       5.735       4.629       3.501       2.352       1.185      2.5992E-03
   3    9.998       8.954       7.901       6.835       5.754       4.650       3.519       2.365       1.191      2.6131E-03
   4    9.998       8.959       7.912       6.854       5.783       4.688       3.549       2.383       1.200      2.6322E-03
   5    9.998       8.964       7.923       6.876       5.823       4.755       3.589       2.404       1.209      2.6518E-03
   6    9.998       8.966       7.929       6.890       5.864       4.899       3.631       2.418       1.214      2.6627E-03
   7    9.998       8.965       7.925       6.879       5.827       4.758       3.592       2.407       1.210      2.6545E-03
   8    9.998       8.962       7.916       6.860       5.790       4.695       3.555       2.388       1.203      2.6381E-03
   9    9.998       8.958       7.908       6.845       5.766       4.663       3.531       2.373       1.196      2.6232E-03
  10    9.998       8.956       7.903       6.837       5.753       4.648       3.518       2.365       1.192      2.6148E-03
1
              HEAD IN LAYER   4 AT END OF TIME STEP  30 IN STRESS PERIOD    3
  ---------------------------------------------------------------------------

            1           2           3           4           5           6           7           8           9          10
 ........................................................................................................................
   1    9.998       8.948       7.887       6.814       5.725       4.617       3.491       2.344       1.181      2.5919E-03
   2    9.998       8.950       7.892       6.821       5.734       4.628       3.499       2.351       1.184      2.5990E-03
   3    9.998       8.954       7.900       6.834       5.752       4.649       3.518       2.363       1.190      2.6129E-03
   4    9.998       8.959       7.911       6.853       5.782       4.686       3.547       2.382       1.199      2.6318E-03
   5    9.998       8.963       7.922       6.874       5.821       4.750       3.587       2.403       1.208      2.6512E-03
   6    9.998       8.965       7.928       6.889       5.859       4.859       3.626       2.416       1.213      2.6619E-03
   7    9.998       8.964       7.924       6.877       5.825       4.753       3.590       2.405       1.209      2.6539E-03
   8    9.998       8.961       7.915       6.859       5.789       4.694       3.554       2.387       1.202      2.6377E-03
   9    9.998       8.957       7.907       6.844       5.765       4.662       3.529       2.372       1.195      2.6229E-03
  10    9.998       8.955       7.902       6.836       5.753       4.647       3.517       2.364       1.191      2.6146E-03
1
              HEAD IN LAYER   5 AT END OF TIME STEP  30 IN STRESS PERIOD    3
  ---------------------------------------------------------------------------

            1           2           3           4           5           6           7           8           9          10
 ........................................................................................................................
   1    9.998       8.947       7.887       6.813       5.724       4.617       3.490       2.344       1.180      2.5908E-03
   2    9.998       8.949       7.891       6.820       5.733       4.627       3.499       2.350       1.183      2.5979E-03
   3    9.998       8.953       7.899       6.834       5.752       4.649       3.517       2.363       1.190      2.6117E-03
   4    9.998       8.958       7.910       6.853       5.781       4.685       3.546       2.381       1.198      2.6305E-03
   5    9.998       8.963       7.921       6.874       5.820       4.747       3.586       2.402       1.207      2.6498E-03
   6    9.998       8.965       7.927       6.888       5.857       4.840       3.623       2.415       1.212      2.6605E-03
   7    9.998       8.964       7.923       6.877       5.824       4.751       3.589       2.404       1.208      2.6525E-03
   8    9.998       8.960       7.915       6.859       5.788       4.693       3.553       2.386       1.201      2.6364E-03
   9    9.998       8.957       7.907       6.844       5.764       4.661       3.529       2.371       1.194      2.6218E-03
  10    9.998       8.955       7.902       6.836       5.752       4.647       3.517       2.364       1.191      2.6135E-03

 HEAD WILL BE SAVED ON UNIT   51 AT END OF TIME STEP   30, STRESS PERIOD    3

 DRAWDOWN WILL BE SAVED ON UNIT   52 AT END OF TIME STEP   30, STRESS PERIOD    3
1
  VOLUMETRIC BUDGET FOR ENTIRE MODEL AT END OF TIME STEP   30, STRESS PERIOD   3
  ------------------------------------------------------------------------------

     CUMULATIVE VOLUMES      L**3       RATES FOR THIS TIME STEP      L**3/T
     ------------------                 ------------------------

           IN:                                      IN:
           ---                                      ---
             STORAGE =         531.1488               STORAGE =          10.4399
       CONSTANT HEAD =           0.0000         CONSTANT HEAD =           0.0000
               WELLS =       11800.0000                 WELLS =          60.0000
     HEAD DEP BOUNDS =      150754.5938       HEAD DEP BOUNDS =        1137.5382

            TOTAL IN =      163085.7500              TOTAL IN =        1207.9781

          OUT:                                     OUT:
          ----                                     ----
             STORAGE =        7395.2183               STORAGE =           5.0083
       CONSTANT HEAD =           0.0000         CONSTANT HEAD =           0.0000
               WELLS =           0.0000                 WELLS =           0.0000
     HEAD DEP BOUNDS =      155686.8281       HEAD DEP BOUNDS =        1202.9254

           TOTAL OUT =      163082.0469             TOTAL OUT =        1207.9337

            IN - OUT =           3.7031              IN - OUT =       4.4434E-02

 PERCENT DISCREPANCY =           0.00     PERCENT DISCREPANCY =           0.00






         TIME SUMMARY AT END OF TIME STEP   30 IN STRESS PERIOD    3
                    SECONDS     MINUTES      HOURS       DAYS        YEARS
                    -----------------------------------------------------------
   TIME STEP LENGTH  86400.      1440.0      24.000      1.0000     2.73785E-03
 STRESS PERIOD TIME 2.59200E+06  43200.      720.00      30.000     8.21355E-02
         TOTAL TIME 1.13184E+07 1.88640E+05  3144.0      131.00     0.35866    
1
 
 SOLVING FOR HEAD 

 OUTPUT CONTROL FOR STRESS PERIOD    3   TIME STEP   31
    SAVE HEAD FOR ALL LAYERS
    SAVE DRAWDOWN FOR ALL LAYERS
    SAVE BUDGET
    PRINT HEAD FOR ALL LAYERS
    PRINT BUDGET
 UBDSV1 SAVING "         STORAGE" ON UNIT  53 AT TIME STEP 31, STRESS PERIOD   3
 UBDSV2 SAVING "   CONSTANT HEAD" ON UNIT  53 AT TIME STEP 31, STRESS PERIOD   3
 UBDSV1 SAVING "FLOW RIGHT FACE " ON UNIT  53 AT TIME STEP 31, STRESS PERIOD   3
 UBDSV1 SAVING "FLOW FRONT FACE " ON UNIT  53 AT TIME STEP 31, STRESS PERIOD   3
 UBDSV1 SAVING "FLOW LOWER FACE " ON UNIT  53 AT TIME STEP 31, STRESS PERIOD   3

 SAVING SATURATED THICKNESS AND FLOW TERMS ON UNIT   54 FOR MT3DMS
 BY THE LINK-MT3DMS PACKAGE V7 AT TIME STEP   31, STRESS PERIOD    3

1
              HEAD IN LAYER   1 AT END OF TIME STEP  31 IN STRESS PERIOD    3
  ---------------------------------------------------------------------------

            1           2           3           4           5           6           7           8           9          10
 ........................................................................................................................
   1    9.998       8.951       7.891       6.818       5.729       4.622       3.495       2.349       1.185      1.5462E-03
   2    9.998       8.954       7.896       6.825       5.738       4.632       3.504       2.356       1.189      1.5507E-03
   3    9.998       8.957       7.904       6.838       5.757       4.654       3.523       2.369       1.195      1.5595E-03
   4    9.998       8.962       7.915       6.858       5.787       4.693       3.553       2.388       1.204      1.5716E-03
   5    9.998       8.967       7.926       6.880       5.828       4.764       3.595       2.409       1.213      1.5840E-03
   6    9.998       8.969       7.932       6.894       5.873       4.947       3.641       2.424       1.218      1.5909E-03
   7    9.998       8.968       7.928       6.882       5.832       4.768       3.598       2.411       1.215      1.5857E-03
   8    9.998       8.965       7.919       6.864       5.794       4.700       3.560       2.393       1.207      1.5752E-03
   9    9.998       8.961       7.911       6.848       5.769       4.667       3.535       2.377       1.200      1.5658E-03
  10    9.998       8.959       7.906       6.840       5.757       4.652       3.522       2.369       1.196      1.5605E-03
1
              HEAD IN LAYER   2 AT END OF TIME STEP  31 IN STRESS PERIOD    3
  ---------------------------------------------------------------------------

            1           2           3           4           5           6           7           8           9          10
 ........................................................................................................................
   1    9.998       8.950       7.890       6.816       5.727       4.620       3.493       2.347       1.184      2.5419E-03
   2    9.998       8.952       7.894       6.823       5.736       4.630       3.502       2.354       1.187      2.5490E-03
   3    9.998       8.956       7.902       6.837       5.755       4.652       3.521       2.367       1.193      2.5628E-03
   4    9.998       8.961       7.913       6.856       5.785       4.690       3.551       2.385       1.202      2.5816E-03
   5    9.998       8.965       7.924       6.877       5.825       4.761       3.592       2.406       1.211      2.6010E-03
   6    9.998       8.968       7.930       6.892       5.869       4.967       3.637       2.421       1.216      2.6118E-03
   7    9.998       8.966       7.926       6.880       5.829       4.764       3.595       2.409       1.212      2.6037E-03
   8    9.998       8.963       7.918       6.862       5.792       4.697       3.557       2.390       1.205      2.5874E-03
   9    9.998       8.959       7.909       6.847       5.767       4.665       3.532       2.375       1.198      2.5727E-03
  10    9.998       8.957       7.905       6.838       5.755       4.650       3.520       2.367       1.194      2.5644E-03
1
              HEAD IN LAYER   3 AT END OF TIME STEP  31 IN STRESS PERIOD    3
  ---------------------------------------------------------------------------

            1           2           3           4           5           6           7           8           9          10
 ........................................................................................................................
   1    9.998       8.949       7.888       6.815       5.726       4.619       3.492       2.346       1.182      2.5922E-03
   2    9.998       8.951       7.893       6.822       5.735       4.629       3.501       2.352       1.185      2.5993E-03
   3    9.998       8.954       7.901       6.835       5.754       4.650       3.519       2.365       1.191      2.6132E-03
   4    9.998       8.959       7.912       6.854       5.783       4.688       3.549       2.383       1.200      2.6321E-03
   5    9.998       8.964       7.923       6.876       5.823       4.755       3.589       2.404       1.209      2.6516E-03
   6    9.998       8.966       7.929       6.890       5.864       4.898       3.630       2.418       1.214      2.6624E-03
   7    9.998       8.965       7.925       6.878       5.826       4.758       3.592       2.406       1.210      2.6543E-03
   8    9.998       8.962       7.916       6.860       5.790       4.695       3.555       2.388       1.203      2.6380E-03
   9    9.998       8.958       7.908       6.845       5.766       4.663       3.531       2.373       1.196      2.6232E-03
  10    9.998       8.956       7.903       6.837       5.754       4.649       3.519       2.365       1.192      2.6149E-03
1
              HEAD IN LAYER   4 AT END OF TIME STEP  31 IN STRESS PERIOD    3
  ---------------------------------------------------------------------------

            1           2           3           4           5           6           7           8           9          10
 ........................................................................................................................
   1    9.998       8.948       7.887       6.814       5.725       4.618       3.491       2.345       1.181      2.5921E-03
   2    9.998       8.950       7.892       6.821       5.734       4.628       3.500       2.351       1.184      2.5991E-03
   3    9.998       8.954       7.900       6.834       5.752       4.649       3.518       2.363       1.190      2.6129E-03
   4    9.998       8.959       7.911       6.853       5.782       4.686       3.547       2.382       1.199      2.6316E-03
   5    9.998       8.963       7.922       6.874       5.821       4.750       3.587       2.402       1.208      2.6509E-03
   6    9.998       8.965       7.928       6.888       5.859       4.858       3.625       2.416       1.213      2.6616E-03
   7    9.998       8.964       7.924       6.877       5.824       4.753       3.590       2.405       1.209      2.6536E-03
   8    9.998       8.961       7.915       6.859       5.789       4.693       3.554       2.387       1.202      2.6376E-03
   9    9.998       8.957       7.907       6.844       5.765       4.662       3.529       2.372       1.195      2.6230E-03
  10    9.998       8.955       7.902       6.836       5.753       4.647       3.517       2.364       1.191      2.6147E-03
1
              HEAD IN LAYER   5 AT END OF TIME STEP  31 IN STRESS PERIOD    3
  ---------------------------------------------------------------------------

            1           2           3           4           5           6           7           8           9          10
 ........................................................................................................................
   1    9.998       8.947       7.887       6.813       5.724       4.617       3.490       2.344       1.180      2.5910E-03
   2    9.998       8.949       7.891       6.820       5.733       4.627       3.499       2.350       1.183      2.5980E-03
   3    9.998       8.953       7.900       6.834       5.752       4.649       3.517       2.363       1.190      2.6117E-03
   4    9.998       8.958       7.910       6.853       5.781       4.685       3.546       2.381       1.198      2.6304E-03
   5    9.998       8.963       7.921       6.874       5.820       4.747       3.585       2.401       1.207      2.6496E-03
   6    9.998       8.965       7.927       6.887       5.856       4.840       3.622       2.415       1.212      2.6602E-03
   7    9.998       8.964       7.923       6.876       5.823       4.750       3.588       2.404       1.208      2.6523E-03
   8    9.998       8.960       7.915       6.859       5.788       4.693       3.553       2.386       1.201      2.6363E-03
   9    9.998       8.957       7.907       6.844       5.764       4.661       3.529       2.371       1.194      2.6218E-03
  10    9.998       8.955       7.902       6.836       5.752       4.647       3.517       2.364       1.191      2.6136E-03

 HEAD WILL BE SAVED ON UNIT   51 AT END OF TIME STEP   31, STRESS PERIOD    3

 DRAWDOWN WILL BE SAVED ON UNIT   52 AT END OF TIME STEP   31, STRESS PERIOD    3
1
  VOLUMETRIC BUDGET FOR ENTIRE MODEL AT END OF TIME STEP   31, STRESS PERIOD   3
  ------------------------------------------------------------------------------

     CUMULATIVE VOLUMES      L**3       RATES FOR THIS TIME STEP      L**3/T
     ------------------                 ------------------------

           IN:                                      IN:
           ---                                      ---
             STORAGE =         541.2932               STORAGE =          10.1444
       CONSTANT HEAD =           0.0000         CONSTANT HEAD =           0.0000
               WELLS =       11860.0000                 WELLS =          60.0000
     HEAD DEP BOUNDS =      151892.0938       HEAD DEP BOUNDS =        1137.5032

            TOTAL IN =      164293.3906              TOTAL IN =        1207.6476

          OUT:                                     OUT:
          ----                                     ----
             STORAGE =        7399.9214               STORAGE =           4.7032
       CONSTANT HEAD =           0.0000         CONSTANT HEAD =           0.0000
               WELLS =           0.0000                 WELLS =           0.0000
     HEAD DEP BOUNDS =      156889.7344       HEAD DEP BOUNDS =        1202.8986

           TOTAL OUT =      164289.6562             TOTAL OUT =        1207.6018

            IN - OUT =           3.7344              IN - OUT =       4.5776E-02

 PERCENT DISCREPANCY =           0.00     PERCENT DISCREPANCY =           0.00






         TIME SUMMARY AT END OF TIME STEP   31 IN STRESS PERIOD    3
                    SECONDS     MINUTES      HOURS       DAYS        YEARS
                    -----------------------------------------------------------
   TIME STEP LENGTH  86400.      1440.0      24.000      1.0000     2.73785E-03
 STRESS PERIOD TIME 2.67840E+06  44640.      744.00      31.000     8.48734E-02
         TOTAL TIME 1.14048E+07 1.90080E+05  3168.0      132.00     0.36140    
1
 
 SOLVING FOR HEAD 

 OUTPUT CONTROL FOR STRESS PERIOD    3   TIME STEP   32
    SAVE HEAD FOR ALL LAYERS
    SAVE DRAWDOWN FOR ALL LAYERS
    SAVE BUDGET
    PRINT HEAD FOR ALL LAYERS
    PRINT BUDGET
 UBDSV1 SAVING "         STORAGE" ON UNIT  53 AT TIME STEP 32, STRESS PERIOD   3
 UBDSV2 SAVING "   CONSTANT HEAD" ON UNIT  53 AT TIME STEP 32, STRESS PERIOD   3
 UBDSV1 SAVING "FLOW RIGHT FACE " ON UNIT  53 AT TIME STEP 32, STRESS PERIOD   3
 UBDSV1 SAVING "FLOW FRONT FACE " ON UNIT  53 AT TIME STEP 32, STRESS PERIOD   3
 UBDSV1 SAVING "FLOW LOWER FACE " ON UNIT  53 AT TIME STEP 32, STRESS PERIOD   3

 SAVING SATURATED THICKNESS AND FLOW TERMS ON UNIT   54 FOR MT3DMS
 BY THE LINK-MT3DMS PACKAGE V7 AT TIME STEP   32, STRESS PERIOD    3

1
              HEAD IN LAYER   1 AT END OF TIME STEP  32 IN STRESS PERIOD    3
  ---------------------------------------------------------------------------

            1           2           3           4           5           6           7           8           9          10
 ........................................................................................................................
   1    9.998       8.952       7.891       6.818       5.729       4.622       3.495       2.349       1.186      1.5463E-03
   2    9.998       8.954       7.896       6.825       5.738       4.632       3.504       2.356       1.189      1.5508E-03
   3    9.998       8.958       7.904       6.838       5.757       4.654       3.523       2.369       1.195      1.5596E-03
   4    9.998       8.962       7.915       6.858       5.787       4.692       3.553       2.387       1.204      1.5715E-03
   5    9.998       8.967       7.926       6.879       5.828       4.764       3.595       2.409       1.213      1.5839E-03
   6    9.998       8.969       7.932       6.894       5.872       4.946       3.640       2.423       1.218      1.5907E-03
   7    9.998       8.968       7.928       6.882       5.831       4.767       3.598       2.411       1.214      1.5856E-03
   8    9.998       8.965       7.919       6.864       5.794       4.700       3.560       2.392       1.207      1.5752E-03
   9    9.998       8.961       7.911       6.848       5.769       4.667       3.535       2.377       1.200      1.5659E-03
  10    9.998       8.959       7.906       6.840       5.757       4.652       3.522       2.369       1.196      1.5605E-03
1
              HEAD IN LAYER   2 AT END OF TIME STEP  32 IN STRESS PERIOD    3
  ---------------------------------------------------------------------------

            1           2           3           4           5           6           7           8           9          10
 ........................................................................................................................
   1    9.998       8.950       7.890       6.816       5.727       4.620       3.493       2.347       1.184      2.5421E-03
   2    9.998       8.952       7.894       6.823       5.736       4.630       3.502       2.354       1.187      2.5492E-03
   3    9.998       8.956       7.902       6.837       5.755       4.652       3.521       2.367       1.193      2.5628E-03
   4    9.998       8.961       7.913       6.856       5.785       4.690       3.551       2.385       1.202      2.5815E-03
   5    9.998       8.965       7.924       6.877       5.825       4.760       3.591       2.406       1.211      2.6008E-03
   6    9.998       8.968       7.930       6.892       5.869       4.966       3.636       2.421       1.216      2.6115E-03
   7    9.998       8.966       7.926       6.880       5.828       4.763       3.595       2.408       1.212      2.6034E-03
   8    9.998       8.963       7.918       6.862       5.792       4.697       3.557       2.390       1.205      2.5873E-03
   9    9.998       8.959       7.909       6.847       5.767       4.665       3.532       2.375       1.198      2.5727E-03
  10    9.998       8.957       7.905       6.839       5.755       4.650       3.520       2.367       1.194      2.5645E-03
1
              HEAD IN LAYER   3 AT END OF TIME STEP  32 IN STRESS PERIOD    3
  ---------------------------------------------------------------------------

            1           2           3           4           5           6           7           8           9          10
 ........................................................................................................................
   1    9.998       8.949       7.888       6.815       5.726       4.619       3.492       2.346       1.182      2.5923E-03
   2    9.998       8.951       7.893       6.822       5.735       4.629       3.501       2.352       1.185      2.5994E-03
   3    9.998       8.955       7.901       6.835       5.754       4.650       3.519       2.365       1.191      2.6132E-03
   4    9.998       8.959       7.912       6.854       5.783       4.687       3.548       2.383       1.200      2.6320E-03
   5    9.998       8.964       7.923       6.875       5.822       4.754       3.588       2.404       1.209      2.6513E-03
   6    9.998       8.966       7.929       6.889       5.863       4.898       3.630       2.418       1.214      2.6621E-03
   7    9.998       8.965       7.925       6.878       5.826       4.757       3.591       2.406       1.210      2.6540E-03
   8    9.998       8.962       7.916       6.860       5.790       4.695       3.555       2.388       1.203      2.6379E-03
   9    9.998       8.958       7.908       6.845       5.766       4.663       3.531       2.373       1.196      2.6233E-03
  10    9.998       8.956       7.903       6.837       5.754       4.649       3.519       2.365       1.192      2.6150E-03
1
              HEAD IN LAYER   4 AT END OF TIME STEP  32 IN STRESS PERIOD    3
  ---------------------------------------------------------------------------

            1           2           3           4           5           6           7           8           9          10
 ........................................................................................................................
   1    9.998       8.948       7.888       6.814       5.725       4.618       3.491       2.345       1.181      2.5922E-03
   2    9.998       8.950       7.892       6.821       5.734       4.628       3.500       2.351       1.184      2.5992E-03
   3    9.998       8.954       7.900       6.834       5.752       4.649       3.518       2.363       1.190      2.6129E-03
   4    9.998       8.959       7.911       6.853       5.781       4.686       3.547       2.382       1.199      2.6315E-03
   5    9.998       8.963       7.922       6.874       5.821       4.749       3.586       2.402       1.208      2.6506E-03
   6    9.998       8.965       7.927       6.888       5.858       4.858       3.624       2.416       1.212      2.6613E-03
   7    9.998       8.964       7.924       6.877       5.824       4.753       3.589       2.404       1.209      2.6534E-03
   8    9.998       8.961       7.915       6.859       5.789       4.693       3.553       2.387       1.201      2.6375E-03
   9    9.998       8.957       7.907       6.844       5.765       4.662       3.529       2.372       1.195      2.6230E-03
  10    9.998       8.955       7.903       6.836       5.753       4.648       3.518       2.364       1.191      2.6148E-03
1
              HEAD IN LAYER   5 AT END OF TIME STEP  32 IN STRESS PERIOD    3
  ---------------------------------------------------------------------------

            1           2           3           4           5           6           7           8           9          10
 ........................................................................................................................
   1    9.998       8.947       7.887       6.814       5.725       4.617       3.490       2.344       1.180      2.5912E-03
   2    9.998       8.950       7.891       6.820       5.733       4.627       3.499       2.350       1.184      2.5982E-03
   3    9.998       8.953       7.900       6.834       5.752       4.648       3.517       2.363       1.190      2.6117E-03
   4    9.998       8.958       7.910       6.852       5.781       4.685       3.546       2.381       1.198      2.6303E-03
   5    9.998       8.963       7.921       6.873       5.819       4.746       3.585       2.401       1.207      2.6493E-03
   6    9.998       8.965       7.927       6.887       5.856       4.839       3.622       2.415       1.212      2.6599E-03
   7    9.998       8.964       7.923       6.876       5.823       4.750       3.588       2.404       1.208      2.6520E-03
   8    9.998       8.960       7.915       6.858       5.788       4.692       3.553       2.386       1.201      2.6362E-03
   9    9.998       8.957       7.907       6.844       5.764       4.661       3.529       2.371       1.194      2.6218E-03
  10    9.998       8.955       7.902       6.836       5.752       4.647       3.517       2.364       1.191      2.6137E-03

 HEAD WILL BE SAVED ON UNIT   51 AT END OF TIME STEP   32, STRESS PERIOD    3

 DRAWDOWN WILL BE SAVED ON UNIT   52 AT END OF TIME STEP   32, STRESS PERIOD    3
1
  VOLUMETRIC BUDGET FOR ENTIRE MODEL AT END OF TIME STEP   32, STRESS PERIOD   3
  ------------------------------------------------------------------------------

     CUMULATIVE VOLUMES      L**3       RATES FOR THIS TIME STEP      L**3/T
     ------------------                 ------------------------

           IN:                                      IN:
           ---                                      ---
             STORAGE =         551.1481               STORAGE =           9.8548
       CONSTANT HEAD =           0.0000         CONSTANT HEAD =           0.0000
               WELLS =       11920.0000                 WELLS =          60.0000
     HEAD DEP BOUNDS =      153029.5625       HEAD DEP BOUNDS =        1137.4711

            TOTAL IN =      165500.7188              TOTAL IN =        1207.3259

          OUT:                                     OUT:
          ----                                     ----
             STORAGE =        7404.3320               STORAGE =           4.4108
       CONSTANT HEAD =           0.0000         CONSTANT HEAD =           0.0000
               WELLS =           0.0000                 WELLS =           0.0000
     HEAD DEP BOUNDS =      158092.6094       HEAD DEP BOUNDS =        1202.8708

           TOTAL OUT =      165496.9375             TOTAL OUT =        1207.2816

            IN - OUT =           3.7812              IN - OUT =       4.4312E-02

 PERCENT DISCREPANCY =           0.00     PERCENT DISCREPANCY =           0.00






         TIME SUMMARY AT END OF TIME STEP   32 IN STRESS PERIOD    3
                    SECONDS     MINUTES      HOURS       DAYS        YEARS
                    -----------------------------------------------------------
   TIME STEP LENGTH  86400.      1440.0      24.000      1.0000     2.73785E-03
 STRESS PERIOD TIME 2.76480E+06  46080.      768.00      32.000     8.76112E-02
         TOTAL TIME 1.14912E+07 1.91520E+05  3192.0      133.00     0.36413    
1
 
 SOLVING FOR HEAD 

 OUTPUT CONTROL FOR STRESS PERIOD    3   TIME STEP   33
    SAVE HEAD FOR ALL LAYERS
    SAVE DRAWDOWN FOR ALL LAYERS
    SAVE BUDGET
    PRINT HEAD FOR ALL LAYERS
    PRINT BUDGET
 UBDSV1 SAVING "         STORAGE" ON UNIT  53 AT TIME STEP 33, STRESS PERIOD   3
 UBDSV2 SAVING "   CONSTANT HEAD" ON UNIT  53 AT TIME STEP 33, STRESS PERIOD   3
 UBDSV1 SAVING "FLOW RIGHT FACE " ON UNIT  53 AT TIME STEP 33, STRESS PERIOD   3
 UBDSV1 SAVING "FLOW FRONT FACE " ON UNIT  53 AT TIME STEP 33, STRESS PERIOD   3
 UBDSV1 SAVING "FLOW LOWER FACE " ON UNIT  53 AT TIME STEP 33, STRESS PERIOD   3

 SAVING SATURATED THICKNESS AND FLOW TERMS ON UNIT   54 FOR MT3DMS
 BY THE LINK-MT3DMS PACKAGE V7 AT TIME STEP   33, STRESS PERIOD    3

1
              HEAD IN LAYER   1 AT END OF TIME STEP  33 IN STRESS PERIOD    3
  ---------------------------------------------------------------------------

            1           2           3           4           5           6           7           8           9          10
 ........................................................................................................................
   1    9.998       8.952       7.892       6.818       5.729       4.622       3.495       2.349       1.186      1.5464E-03
   2    9.998       8.954       7.896       6.825       5.738       4.632       3.504       2.356       1.189      1.5509E-03
   3    9.998       8.958       7.904       6.839       5.757       4.654       3.523       2.369       1.195      1.5596E-03
   4    9.998       8.962       7.915       6.858       5.787       4.692       3.553       2.387       1.204      1.5714E-03
   5    9.998       8.967       7.926       6.879       5.827       4.763       3.594       2.409       1.213      1.5837E-03
   6    9.998       8.969       7.932       6.894       5.872       4.945       3.640       2.423       1.218      1.5905E-03
   7    9.998       8.968       7.928       6.882       5.831       4.767       3.597       2.411       1.214      1.5854E-03
   8    9.998       8.965       7.919       6.864       5.794       4.700       3.560       2.392       1.207      1.5751E-03
   9    9.998       8.961       7.911       6.849       5.769       4.667       3.535       2.377       1.200      1.5659E-03
  10    9.998       8.959       7.907       6.840       5.757       4.652       3.522       2.369       1.196      1.5606E-03
1
              HEAD IN LAYER   2 AT END OF TIME STEP  33 IN STRESS PERIOD    3
  ---------------------------------------------------------------------------

            1           2           3           4           5           6           7           8           9          10
 ........................................................................................................................
   1    9.998       8.950       7.890       6.816       5.727       4.620       3.494       2.348       1.184      2.5423E-03
   2    9.998       8.952       7.894       6.823       5.737       4.630       3.503       2.354       1.187      2.5493E-03
   3    9.998       8.956       7.902       6.837       5.755       4.652       3.521       2.367       1.193      2.5629E-03
   4    9.998       8.961       7.913       6.856       5.784       4.690       3.550       2.385       1.202      2.5814E-03
   5    9.998       8.965       7.924       6.877       5.825       4.759       3.591       2.406       1.211      2.6005E-03
   6    9.998       8.968       7.930       6.891       5.868       4.966       3.635       2.420       1.216      2.6112E-03
   7    9.998       8.966       7.926       6.880       5.828       4.763       3.594       2.408       1.212      2.6032E-03
   8    9.998       8.963       7.918       6.862       5.792       4.697       3.557       2.390       1.205      2.5872E-03
   9    9.998       8.959       7.910       6.847       5.767       4.665       3.532       2.375       1.198      2.5728E-03
  10    9.998       8.957       7.905       6.839       5.755       4.650       3.520       2.367       1.194      2.5646E-03
1
              HEAD IN LAYER   3 AT END OF TIME STEP  33 IN STRESS PERIOD    3
  ---------------------------------------------------------------------------

            1           2           3           4           5           6           7           8           9          10
 ........................................................................................................................
   1    9.998       8.949       7.889       6.815       5.726       4.619       3.492       2.346       1.182      2.5925E-03
   2    9.998       8.951       7.893       6.822       5.735       4.629       3.501       2.352       1.185      2.5995E-03
   3    9.998       8.955       7.901       6.835       5.754       4.650       3.519       2.365       1.191      2.6132E-03
   4    9.998       8.959       7.912       6.854       5.782       4.687       3.548       2.383       1.200      2.6318E-03
   5    9.998       8.964       7.923       6.875       5.822       4.754       3.588       2.403       1.209      2.6510E-03
   6    9.998       8.966       7.928       6.889       5.863       4.897       3.629       2.417       1.214      2.6617E-03
   7    9.998       8.965       7.925       6.878       5.825       4.757       3.591       2.406       1.210      2.6538E-03
   8    9.998       8.962       7.916       6.860       5.790       4.695       3.555       2.388       1.203      2.6378E-03
   9    9.998       8.958       7.908       6.845       5.766       4.663       3.531       2.373       1.196      2.6233E-03
  10    9.998       8.956       7.904       6.837       5.754       4.649       3.519       2.366       1.192      2.6152E-03
1
              HEAD IN LAYER   4 AT END OF TIME STEP  33 IN STRESS PERIOD    3
  ---------------------------------------------------------------------------

            1           2           3           4           5           6           7           8           9          10
 ........................................................................................................................
   1    9.998       8.948       7.888       6.814       5.725       4.618       3.491       2.345       1.181      2.5924E-03
   2    9.998       8.950       7.892       6.821       5.734       4.628       3.500       2.351       1.184      2.5994E-03
   3    9.998       8.954       7.900       6.834       5.752       4.649       3.518       2.363       1.190      2.6129E-03
   4    9.998       8.959       7.911       6.853       5.781       4.686       3.547       2.381       1.199      2.6314E-03
   5    9.998       8.963       7.922       6.874       5.820       4.749       3.586       2.402       1.207      2.6504E-03
   6    9.998       8.965       7.927       6.888       5.858       4.857       3.624       2.415       1.212      2.6610E-03
   7    9.998       8.964       7.924       6.877       5.823       4.752       3.589       2.404       1.209      2.6531E-03
   8    9.998       8.961       7.915       6.859       5.788       4.693       3.553       2.386       1.201      2.6373E-03
   9    9.998       8.957       7.907       6.844       5.765       4.662       3.529       2.372       1.195      2.6230E-03
  10    9.998       8.955       7.903       6.836       5.753       4.648       3.518       2.364       1.191      2.6149E-03
1
              HEAD IN LAYER   5 AT END OF TIME STEP  33 IN STRESS PERIOD    3
  ---------------------------------------------------------------------------

            1           2           3           4           5           6           7           8           9          10
 ........................................................................................................................
   1    9.998       8.948       7.887       6.814       5.725       4.617       3.491       2.344       1.180      2.5913E-03
   2    9.998       8.950       7.892       6.821       5.734       4.627       3.499       2.350       1.184      2.5983E-03
   3    9.998       8.953       7.900       6.834       5.752       4.648       3.517       2.363       1.190      2.6117E-03
   4    9.998       8.958       7.910       6.852       5.781       4.685       3.546       2.381       1.198      2.6301E-03
   5    9.998       8.963       7.921       6.873       5.819       4.746       3.585       2.401       1.207      2.6490E-03
   6    9.998       8.965       7.927       6.887       5.855       4.839       3.621       2.414       1.212      2.6596E-03
   7    9.998       8.964       7.923       6.876       5.822       4.749       3.588       2.403       1.208      2.6518E-03
   8    9.998       8.960       7.915       6.858       5.788       4.692       3.553       2.386       1.201      2.6361E-03
   9    9.998       8.957       7.907       6.844       5.764       4.661       3.529       2.371       1.194      2.6218E-03
  10    9.998       8.955       7.902       6.836       5.752       4.647       3.517       2.364       1.191      2.6138E-03

 HEAD WILL BE SAVED ON UNIT   51 AT END OF TIME STEP   33, STRESS PERIOD    3

 DRAWDOWN WILL BE SAVED ON UNIT   52 AT END OF TIME STEP   33, STRESS PERIOD    3
1
  VOLUMETRIC BUDGET FOR ENTIRE MODEL AT END OF TIME STEP   33, STRESS PERIOD   3
  ------------------------------------------------------------------------------

     CUMULATIVE VOLUMES      L**3       RATES FOR THIS TIME STEP      L**3/T
     ------------------                 ------------------------

           IN:                                      IN:
           ---                                      ---
             STORAGE =         560.7309               STORAGE =           9.5828
       CONSTANT HEAD =           0.0000         CONSTANT HEAD =           0.0000
               WELLS =       11980.0000                 WELLS =          60.0000
     HEAD DEP BOUNDS =      154167.0000       HEAD DEP BOUNDS =        1137.4420

            TOTAL IN =      166707.7344              TOTAL IN =        1207.0249

          OUT:                                     OUT:
          ----                                     ----
             STORAGE =        7408.4731               STORAGE =           4.1410
       CONSTANT HEAD =           0.0000         CONSTANT HEAD =           0.0000
               WELLS =           0.0000                 WELLS =           0.0000
     HEAD DEP BOUNDS =      159295.4531       HEAD DEP BOUNDS =        1202.8417

           TOTAL OUT =      166703.9219             TOTAL OUT =        1206.9827

            IN - OUT =           3.8125              IN - OUT =       4.2236E-02

 PERCENT DISCREPANCY =           0.00     PERCENT DISCREPANCY =           0.00






         TIME SUMMARY AT END OF TIME STEP   33 IN STRESS PERIOD    3
                    SECONDS     MINUTES      HOURS       DAYS        YEARS
                    -----------------------------------------------------------
   TIME STEP LENGTH  86400.      1440.0      24.000      1.0000     2.73785E-03
 STRESS PERIOD TIME 2.85120E+06  47520.      792.00      33.000     9.03491E-02
         TOTAL TIME 1.15776E+07 1.92960E+05  3216.0      134.00     0.36687    
1
 
 SOLVING FOR HEAD 

 OUTPUT CONTROL FOR STRESS PERIOD    3   TIME STEP   34
    SAVE HEAD FOR ALL LAYERS
    SAVE DRAWDOWN FOR ALL LAYERS
    SAVE BUDGET
    PRINT HEAD FOR ALL LAYERS
    PRINT BUDGET
 UBDSV1 SAVING "         STORAGE" ON UNIT  53 AT TIME STEP 34, STRESS PERIOD   3
 UBDSV2 SAVING "   CONSTANT HEAD" ON UNIT  53 AT TIME STEP 34, STRESS PERIOD   3
 UBDSV1 SAVING "FLOW RIGHT FACE " ON UNIT  53 AT TIME STEP 34, STRESS PERIOD   3
 UBDSV1 SAVING "FLOW FRONT FACE " ON UNIT  53 AT TIME STEP 34, STRESS PERIOD   3
 UBDSV1 SAVING "FLOW LOWER FACE " ON UNIT  53 AT TIME STEP 34, STRESS PERIOD   3

 SAVING SATURATED THICKNESS AND FLOW TERMS ON UNIT   54 FOR MT3DMS
 BY THE LINK-MT3DMS PACKAGE V7 AT TIME STEP   34, STRESS PERIOD    3

1
              HEAD IN LAYER   1 AT END OF TIME STEP  34 IN STRESS PERIOD    3
  ---------------------------------------------------------------------------

            1           2           3           4           5           6           7           8           9          10
 ........................................................................................................................
   1    9.998       8.952       7.892       6.818       5.729       4.622       3.496       2.350       1.186      1.5466E-03
   2    9.998       8.954       7.896       6.825       5.738       4.632       3.505       2.356       1.189      1.5510E-03
   3    9.998       8.958       7.904       6.839       5.757       4.654       3.523       2.369       1.195      1.5596E-03
   4    9.998       8.962       7.915       6.858       5.787       4.692       3.553       2.387       1.204      1.5714E-03
   5    9.998       8.967       7.926       6.879       5.827       4.763       3.594       2.408       1.213      1.5836E-03
   6    9.998       8.969       7.932       6.893       5.871       4.945       3.639       2.423       1.218      1.5904E-03
   7    9.998       8.968       7.928       6.882       5.830       4.766       3.597       2.411       1.214      1.5852E-03
   8    9.998       8.965       7.919       6.864       5.794       4.699       3.559       2.392       1.207      1.5751E-03
   9    9.998       8.961       7.911       6.849       5.769       4.667       3.535       2.377       1.200      1.5659E-03
  10    9.998       8.959       7.907       6.841       5.757       4.652       3.522       2.369       1.196      1.5607E-03
1
              HEAD IN LAYER   2 AT END OF TIME STEP  34 IN STRESS PERIOD    3
  ---------------------------------------------------------------------------

            1           2           3           4           5           6           7           8           9          10
 ........................................................................................................................
   1    9.998       8.950       7.890       6.817       5.728       4.621       3.494       2.348       1.184      2.5425E-03
   2    9.998       8.952       7.894       6.823       5.737       4.631       3.503       2.354       1.187      2.5494E-03
   3    9.998       8.956       7.903       6.837       5.755       4.652       3.521       2.367       1.193      2.5629E-03
   4    9.998       8.961       7.913       6.856       5.784       4.689       3.550       2.385       1.202      2.5813E-03
   5    9.998       8.965       7.924       6.877       5.824       4.759       3.591       2.406       1.211      2.6002E-03
   6    9.998       8.968       7.930       6.891       5.868       4.965       3.635       2.420       1.216      2.6108E-03
   7    9.998       8.966       7.926       6.880       5.828       4.762       3.594       2.408       1.212      2.6029E-03
   8    9.998       8.963       7.918       6.862       5.791       4.697       3.557       2.390       1.205      2.5871E-03
   9    9.998       8.960       7.910       6.847       5.767       4.665       3.532       2.375       1.198      2.5728E-03
  10    9.998       8.957       7.905       6.839       5.755       4.650       3.521       2.367       1.194      2.5648E-03
1
              HEAD IN LAYER   3 AT END OF TIME STEP  34 IN STRESS PERIOD    3
  ---------------------------------------------------------------------------

            1           2           3           4           5           6           7           8           9          10
 ........................................................................................................................
   1    9.998       8.949       7.889       6.815       5.726       4.619       3.492       2.346       1.182      2.5927E-03
   2    9.998       8.951       7.893       6.822       5.735       4.629       3.501       2.352       1.185      2.5996E-03
   3    9.998       8.955       7.901       6.835       5.754       4.650       3.519       2.365       1.191      2.6132E-03
   4    9.998       8.959       7.912       6.854       5.782       4.687       3.548       2.383       1.200      2.6317E-03
   5    9.998       8.964       7.922       6.875       5.822       4.753       3.588       2.403       1.209      2.6508E-03
   6    9.998       8.966       7.928       6.889       5.862       4.897       3.629       2.417       1.213      2.6614E-03
   7    9.998       8.965       7.924       6.878       5.825       4.757       3.591       2.406       1.210      2.6535E-03
   8    9.998       8.962       7.916       6.860       5.789       4.694       3.555       2.388       1.203      2.6377E-03
   9    9.998       8.958       7.908       6.845       5.766       4.663       3.531       2.373       1.196      2.6233E-03
  10    9.998       8.956       7.904       6.837       5.754       4.649       3.519       2.366       1.192      2.6152E-03
1
              HEAD IN LAYER   4 AT END OF TIME STEP  34 IN STRESS PERIOD    3
  ---------------------------------------------------------------------------

            1           2           3           4           5           6           7           8           9          10
 ........................................................................................................................
   1    9.998       8.948       7.888       6.814       5.725       4.618       3.491       2.345       1.181      2.5925E-03
   2    9.998       8.950       7.892       6.821       5.734       4.628       3.500       2.351       1.184      2.5995E-03
   3    9.998       8.954       7.900       6.834       5.752       4.649       3.518       2.363       1.190      2.6129E-03
   4    9.998       8.959       7.911       6.853       5.781       4.685       3.546       2.381       1.199      2.6312E-03
   5    9.998       8.963       7.921       6.874       5.820       4.748       3.585       2.402       1.207      2.6501E-03
   6    9.998       8.965       7.927       6.887       5.858       4.857       3.624       2.415       1.212      2.6607E-03
   7    9.998       8.964       7.923       6.876       5.823       4.752       3.588       2.404       1.209      2.6529E-03
   8    9.998       8.961       7.915       6.859       5.788       4.693       3.553       2.386       1.201      2.6372E-03
   9    9.998       8.957       7.907       6.844       5.765       4.662       3.529       2.372       1.195      2.6230E-03
  10    9.998       8.955       7.903       6.837       5.753       4.648       3.518       2.364       1.191      2.6150E-03
1
              HEAD IN LAYER   5 AT END OF TIME STEP  34 IN STRESS PERIOD    3
  ---------------------------------------------------------------------------

            1           2           3           4           5           6           7           8           9          10
 ........................................................................................................................
   1    9.998       8.948       7.887       6.814       5.725       4.618       3.491       2.344       1.180      2.5915E-03
   2    9.998       8.950       7.892       6.821       5.734       4.627       3.499       2.351       1.184      2.5984E-03
   3    9.998       8.953       7.900       6.834       5.752       4.648       3.517       2.363       1.190      2.6117E-03
   4    9.998       8.958       7.910       6.852       5.780       4.684       3.546       2.381       1.198      2.6300E-03
   5    9.998       8.963       7.921       6.873       5.819       4.746       3.584       2.401       1.207      2.6488E-03
   6    9.998       8.965       7.927       6.887       5.855       4.838       3.621       2.414       1.211      2.6593E-03
   7    9.998       8.964       7.923       6.876       5.822       4.749       3.587       2.403       1.208      2.6515E-03
   8    9.998       8.960       7.915       6.858       5.788       4.692       3.552       2.386       1.201      2.6360E-03
   9    9.998       8.957       7.907       6.844       5.764       4.661       3.529       2.371       1.194      2.6219E-03
  10    9.998       8.955       7.902       6.836       5.752       4.647       3.517       2.364       1.191      2.6139E-03

 HEAD WILL BE SAVED ON UNIT   51 AT END OF TIME STEP   34, STRESS PERIOD    3

 DRAWDOWN WILL BE SAVED ON UNIT   52 AT END OF TIME STEP   34, STRESS PERIOD    3
1
  VOLUMETRIC BUDGET FOR ENTIRE MODEL AT END OF TIME STEP   34, STRESS PERIOD   3
  ------------------------------------------------------------------------------

     CUMULATIVE VOLUMES      L**3       RATES FOR THIS TIME STEP      L**3/T
     ------------------                 ------------------------

           IN:                                      IN:
           ---                                      ---
             STORAGE =         570.0552               STORAGE =           9.3244
       CONSTANT HEAD =           0.0000         CONSTANT HEAD =           0.0000
               WELLS =       12040.0000                 WELLS =          60.0000
     HEAD DEP BOUNDS =      155304.4219       HEAD DEP BOUNDS =        1137.4158

            TOTAL IN =      167914.4844              TOTAL IN =        1206.7401

          OUT:                                     OUT:
          ----                                     ----
             STORAGE =        7412.3560               STORAGE =           3.8826
       CONSTANT HEAD =           0.0000         CONSTANT HEAD =           0.0000
               WELLS =           0.0000                 WELLS =           0.0000
     HEAD DEP BOUNDS =      160498.2656       HEAD DEP BOUNDS =        1202.8112

           TOTAL OUT =      167910.6250             TOTAL OUT =        1206.6937

            IN - OUT =           3.8594              IN - OUT =       4.6387E-02

 PERCENT DISCREPANCY =           0.00     PERCENT DISCREPANCY =           0.00






         TIME SUMMARY AT END OF TIME STEP   34 IN STRESS PERIOD    3
                    SECONDS     MINUTES      HOURS       DAYS        YEARS
                    -----------------------------------------------------------
   TIME STEP LENGTH  86400.      1440.0      24.000      1.0000     2.73785E-03
 STRESS PERIOD TIME 2.93760E+06  48960.      816.00      34.000     9.30869E-02
         TOTAL TIME 1.16640E+07 1.94400E+05  3240.0      135.00     0.36961    
1
 
 SOLVING FOR HEAD 

 OUTPUT CONTROL FOR STRESS PERIOD    3   TIME STEP   35
    SAVE HEAD FOR ALL LAYERS
    SAVE DRAWDOWN FOR ALL LAYERS
    SAVE BUDGET
    PRINT HEAD FOR ALL LAYERS
    PRINT BUDGET
 UBDSV1 SAVING "         STORAGE" ON UNIT  53 AT TIME STEP 35, STRESS PERIOD   3
 UBDSV2 SAVING "   CONSTANT HEAD" ON UNIT  53 AT TIME STEP 35, STRESS PERIOD   3
 UBDSV1 SAVING "FLOW RIGHT FACE " ON UNIT  53 AT TIME STEP 35, STRESS PERIOD   3
 UBDSV1 SAVING "FLOW FRONT FACE " ON UNIT  53 AT TIME STEP 35, STRESS PERIOD   3
 UBDSV1 SAVING "FLOW LOWER FACE " ON UNIT  53 AT TIME STEP 35, STRESS PERIOD   3

 SAVING SATURATED THICKNESS AND FLOW TERMS ON UNIT   54 FOR MT3DMS
 BY THE LINK-MT3DMS PACKAGE V7 AT TIME STEP   35, STRESS PERIOD    3

1
              HEAD IN LAYER   1 AT END OF TIME STEP  35 IN STRESS PERIOD    3
  ---------------------------------------------------------------------------

            1           2           3           4           5           6           7           8           9          10
 ........................................................................................................................
   1    9.998       8.952       7.892       6.819       5.730       4.622       3.496       2.350       1.186      1.5467E-03
   2    9.998       8.954       7.896       6.825       5.739       4.633       3.505       2.356       1.189      1.5510E-03
   3    9.998       8.958       7.904       6.839       5.757       4.654       3.523       2.369       1.195      1.5596E-03
   4    9.998       8.962       7.915       6.858       5.786       4.692       3.552       2.387       1.204      1.5713E-03
   5    9.998       8.967       7.926       6.879       5.827       4.762       3.593       2.408       1.213      1.5833E-03
   6    9.998       8.969       7.932       6.893       5.871       4.944       3.638       2.422       1.218      1.5902E-03
   7    9.998       8.968       7.928       6.882       5.830       4.766       3.596       2.410       1.214      1.5850E-03
   8    9.998       8.965       7.919       6.864       5.793       4.699       3.559       2.392       1.207      1.5750E-03
   9    9.998       8.961       7.911       6.849       5.769       4.667       3.535       2.377       1.200      1.5659E-03
  10    9.998       8.959       7.907       6.841       5.757       4.652       3.523       2.369       1.196      1.5607E-03
1
              HEAD IN LAYER   2 AT END OF TIME STEP  35 IN STRESS PERIOD    3
  ---------------------------------------------------------------------------

            1           2           3           4           5           6           7           8           9          10
 ........................................................................................................................
   1    9.998       8.950       7.890       6.817       5.728       4.621       3.494       2.348       1.184      2.5426E-03
   2    9.998       8.952       7.894       6.824       5.737       4.631       3.503       2.354       1.187      2.5495E-03
   3    9.998       8.956       7.903       6.837       5.755       4.652       3.521       2.367       1.193      2.5629E-03
   4    9.998       8.961       7.913       6.856       5.784       4.689       3.550       2.385       1.202      2.5812E-03
   5    9.998       8.965       7.924       6.877       5.824       4.759       3.590       2.405       1.211      2.6000E-03
   6    9.998       8.967       7.930       6.891       5.867       4.964       3.634       2.420       1.215      2.6105E-03
   7    9.998       8.966       7.926       6.879       5.827       4.762       3.593       2.408       1.212      2.6027E-03
   8    9.998       8.963       7.918       6.862       5.791       4.697       3.557       2.390       1.205      2.5870E-03
   9    9.998       8.960       7.910       6.847       5.767       4.665       3.532       2.375       1.198      2.5728E-03
  10    9.998       8.958       7.905       6.839       5.756       4.651       3.521       2.367       1.194      2.5648E-03
1
              HEAD IN LAYER   3 AT END OF TIME STEP  35 IN STRESS PERIOD    3
  ---------------------------------------------------------------------------

            1           2           3           4           5           6           7           8           9          10
 ........................................................................................................................
   1    9.998       8.949       7.889       6.816       5.726       4.619       3.492       2.346       1.182      2.5928E-03
   2    9.998       8.951       7.893       6.822       5.735       4.629       3.501       2.352       1.185      2.5997E-03
   3    9.998       8.955       7.901       6.835       5.754       4.650       3.519       2.365       1.191      2.6132E-03
   4    9.998       8.959       7.912       6.854       5.782       4.687       3.548       2.383       1.200      2.6316E-03
   5    9.998       8.964       7.922       6.875       5.821       4.753       3.587       2.403       1.208      2.6505E-03
   6    9.998       8.966       7.928       6.889       5.862       4.896       3.628       2.417       1.213      2.6611E-03
   7    9.998       8.965       7.924       6.877       5.825       4.756       3.590       2.405       1.210      2.6533E-03
   8    9.998       8.962       7.916       6.860       5.789       4.694       3.554       2.388       1.203      2.6376E-03
   9    9.998       8.958       7.908       6.845       5.766       4.663       3.531       2.373       1.196      2.6233E-03
  10    9.998       8.956       7.904       6.838       5.754       4.649       3.519       2.366       1.192      2.6153E-03
1
              HEAD IN LAYER   4 AT END OF TIME STEP  35 IN STRESS PERIOD    3
  ---------------------------------------------------------------------------

            1           2           3           4           5           6           7           8           9          10
 ........................................................................................................................
   1    9.998       8.948       7.888       6.815       5.726       4.618       3.491       2.345       1.181      2.5927E-03
   2    9.998       8.950       7.892       6.821       5.734       4.628       3.500       2.351       1.184      2.5996E-03
   3    9.998       8.954       7.900       6.834       5.752       4.649       3.518       2.363       1.190      2.6129E-03
   4    9.998       8.959       7.911       6.853       5.781       4.685       3.546       2.381       1.199      2.6311E-03
   5    9.998       8.963       7.921       6.873       5.819       4.748       3.585       2.401       1.207      2.6499E-03
   6    9.998       8.965       7.927       6.887       5.857       4.856       3.623       2.415       1.212      2.6604E-03
   7    9.998       8.964       7.923       6.876       5.823       4.751       3.588       2.404       1.208      2.6526E-03
   8    9.998       8.961       7.915       6.859       5.788       4.693       3.553       2.386       1.201      2.6371E-03
   9    9.998       8.958       7.907       6.844       5.765       4.662       3.529       2.372       1.195      2.6230E-03
  10    9.998       8.956       7.903       6.837       5.753       4.648       3.518       2.364       1.191      2.6151E-03
1
              HEAD IN LAYER   5 AT END OF TIME STEP  35 IN STRESS PERIOD    3
  ---------------------------------------------------------------------------

            1           2           3           4           5           6           7           8           9          10
 ........................................................................................................................
   1    9.998       8.948       7.888       6.814       5.725       4.618       3.491       2.345       1.181      2.5916E-03
   2    9.998       8.950       7.892       6.821       5.734       4.628       3.499       2.351       1.184      2.5984E-03
   3    9.998       8.953       7.900       6.834       5.752       4.648       3.517       2.363       1.190      2.6117E-03
   4    9.998       8.958       7.910       6.852       5.780       4.684       3.545       2.380       1.198      2.6299E-03
   5    9.998       8.963       7.921       6.873       5.818       4.745       3.584       2.400       1.207      2.6485E-03
   6    9.998       8.965       7.927       6.886       5.855       4.838       3.620       2.414       1.211      2.6590E-03
   7    9.998       8.964       7.923       6.876       5.822       4.749       3.587       2.403       1.208      2.6513E-03
   8    9.998       8.960       7.915       6.858       5.787       4.692       3.552       2.385       1.201      2.6359E-03
   9    9.998       8.957       7.907       6.844       5.764       4.661       3.529       2.371       1.194      2.6219E-03
  10    9.998       8.955       7.902       6.836       5.753       4.647       3.517       2.364       1.191      2.6140E-03

 HEAD WILL BE SAVED ON UNIT   51 AT END OF TIME STEP   35, STRESS PERIOD    3

 DRAWDOWN WILL BE SAVED ON UNIT   52 AT END OF TIME STEP   35, STRESS PERIOD    3
1
  VOLUMETRIC BUDGET FOR ENTIRE MODEL AT END OF TIME STEP   35, STRESS PERIOD   3
  ------------------------------------------------------------------------------

     CUMULATIVE VOLUMES      L**3       RATES FOR THIS TIME STEP      L**3/T
     ------------------                 ------------------------

           IN:                                      IN:
           ---                                      ---
             STORAGE =         579.1293               STORAGE =           9.0740
       CONSTANT HEAD =           0.0000         CONSTANT HEAD =           0.0000
               WELLS =       12100.0000                 WELLS =          60.0000
     HEAD DEP BOUNDS =      156441.8125       HEAD DEP BOUNDS =        1137.3923

            TOTAL IN =      169120.9375              TOTAL IN =        1206.4664

          OUT:                                     OUT:
          ----                                     ----
             STORAGE =        7416.0029               STORAGE =           3.6470
       CONSTANT HEAD =           0.0000         CONSTANT HEAD =           0.0000
               WELLS =           0.0000                 WELLS =           0.0000
     HEAD DEP BOUNDS =      161701.0469       HEAD DEP BOUNDS =        1202.7786

           TOTAL OUT =      169117.0469             TOTAL OUT =        1206.4255

            IN - OUT =           3.8906              IN - OUT =       4.0894E-02

 PERCENT DISCREPANCY =           0.00     PERCENT DISCREPANCY =           0.00






         TIME SUMMARY AT END OF TIME STEP   35 IN STRESS PERIOD    3
                    SECONDS     MINUTES      HOURS       DAYS        YEARS
                    -----------------------------------------------------------
   TIME STEP LENGTH  86400.      1440.0      24.000      1.0000     2.73785E-03
 STRESS PERIOD TIME 3.02400E+06  50400.      840.00      35.000     9.58248E-02
         TOTAL TIME 1.17504E+07 1.95840E+05  3264.0      136.00     0.37235    
1
 
 SOLVING FOR HEAD 

 OUTPUT CONTROL FOR STRESS PERIOD    3   TIME STEP   36
    SAVE HEAD FOR ALL LAYERS
    SAVE DRAWDOWN FOR ALL LAYERS
    SAVE BUDGET
    PRINT HEAD FOR ALL LAYERS
    PRINT BUDGET
 UBDSV1 SAVING "         STORAGE" ON UNIT  53 AT TIME STEP 36, STRESS PERIOD   3
 UBDSV2 SAVING "   CONSTANT HEAD" ON UNIT  53 AT TIME STEP 36, STRESS PERIOD   3
 UBDSV1 SAVING "FLOW RIGHT FACE " ON UNIT  53 AT TIME STEP 36, STRESS PERIOD   3
 UBDSV1 SAVING "FLOW FRONT FACE " ON UNIT  53 AT TIME STEP 36, STRESS PERIOD   3
 UBDSV1 SAVING "FLOW LOWER FACE " ON UNIT  53 AT TIME STEP 36, STRESS PERIOD   3

 SAVING SATURATED THICKNESS AND FLOW TERMS ON UNIT   54 FOR MT3DMS
 BY THE LINK-MT3DMS PACKAGE V7 AT TIME STEP   36, STRESS PERIOD    3

1
              HEAD IN LAYER   1 AT END OF TIME STEP  36 IN STRESS PERIOD    3
  ---------------------------------------------------------------------------

            1           2           3           4           5           6           7           8           9          10
 ........................................................................................................................
   1    9.998       8.952       7.892       6.819       5.730       4.623       3.496       2.350       1.186      1.5468E-03
   2    9.998       8.954       7.896       6.825       5.739       4.633       3.505       2.356       1.189      1.5511E-03
   3    9.998       8.958       7.904       6.839       5.757       4.654       3.523       2.369       1.195      1.5596E-03
   4    9.998       8.962       7.915       6.857       5.786       4.691       3.552       2.387       1.204      1.5712E-03
   5    9.998       8.967       7.926       6.879       5.826       4.762       3.593       2.408       1.213      1.5832E-03
   6    9.998       8.969       7.932       6.893       5.870       4.943       3.638       2.422       1.218      1.5899E-03
   7    9.998       8.968       7.928       6.881       5.830       4.765       3.596       2.410       1.214      1.5849E-03
   8    9.998       8.965       7.919       6.863       5.793       4.699       3.559       2.392       1.207      1.5749E-03
   9    9.998       8.961       7.912       6.849       5.769       4.667       3.535       2.377       1.200      1.5659E-03
  10    9.998       8.959       7.907       6.841       5.757       4.652       3.523       2.370       1.196      1.5609E-03
1
              HEAD IN LAYER   2 AT END OF TIME STEP  36 IN STRESS PERIOD    3
  ---------------------------------------------------------------------------

            1           2           3           4           5           6           7           8           9          10
 ........................................................................................................................
   1    9.998       8.950       7.890       6.817       5.728       4.621       3.494       2.348       1.184      2.5428E-03
   2    9.998       8.952       7.895       6.824       5.737       4.631       3.503       2.354       1.187      2.5496E-03
   3    9.998       8.956       7.903       6.837       5.755       4.652       3.521       2.367       1.193      2.5629E-03
   4    9.998       8.961       7.913       6.855       5.784       4.689       3.550       2.385       1.202      2.5810E-03
   5    9.998       8.965       7.924       6.876       5.824       4.758       3.590       2.405       1.210      2.5997E-03
   6    9.998       8.967       7.930       6.890       5.867       4.964       3.634       2.419       1.215      2.6102E-03
   7    9.998       8.966       7.926       6.879       5.827       4.762       3.593       2.407       1.212      2.6024E-03
   8    9.998       8.963       7.918       6.861       5.791       4.696       3.556       2.390       1.204      2.5869E-03
   9    9.998       8.960       7.910       6.847       5.767       4.665       3.532       2.375       1.198      2.5728E-03
  10    9.998       8.958       7.905       6.839       5.756       4.651       3.521       2.368       1.194      2.5649E-03
1
              HEAD IN LAYER   3 AT END OF TIME STEP  36 IN STRESS PERIOD    3
  ---------------------------------------------------------------------------

            1           2           3           4           5           6           7           8           9          10
 ........................................................................................................................
   1    9.998       8.949       7.889       6.816       5.727       4.619       3.493       2.346       1.182      2.5930E-03
   2    9.998       8.951       7.893       6.822       5.735       4.629       3.501       2.352       1.185      2.5998E-03
   3    9.998       8.955       7.901       6.835       5.754       4.650       3.519       2.365       1.191      2.6132E-03
   4    9.998       8.959       7.912       6.854       5.782       4.687       3.547       2.382       1.200      2.6314E-03
   5    9.998       8.964       7.922       6.874       5.821       4.752       3.587       2.403       1.208      2.6503E-03
   6    9.998       8.966       7.928       6.888       5.861       4.896       3.628       2.417       1.213      2.6608E-03
   7    9.998       8.965       7.924       6.877       5.824       4.756       3.590       2.405       1.210      2.6530E-03
   8    9.998       8.962       7.916       6.860       5.789       4.694       3.554       2.387       1.203      2.6374E-03
   9    9.998       8.958       7.908       6.845       5.766       4.663       3.531       2.373       1.196      2.6233E-03
  10    9.998       8.956       7.904       6.838       5.754       4.649       3.519       2.366       1.192      2.6154E-03
1
              HEAD IN LAYER   4 AT END OF TIME STEP  36 IN STRESS PERIOD    3
  ---------------------------------------------------------------------------

            1           2           3           4           5           6           7           8           9          10
 ........................................................................................................................
   1    9.998       8.948       7.888       6.815       5.726       4.618       3.492       2.345       1.181      2.5928E-03
   2    9.998       8.950       7.892       6.821       5.734       4.628       3.500       2.351       1.184      2.5996E-03
   3    9.998       8.954       7.900       6.834       5.752       4.649       3.518       2.363       1.190      2.6129E-03
   4    9.998       8.959       7.911       6.853       5.781       4.685       3.546       2.381       1.199      2.6310E-03
   5    9.998       8.963       7.921       6.873       5.819       4.747       3.585       2.401       1.207      2.6496E-03
   6    9.998       8.965       7.927       6.887       5.857       4.856       3.623       2.415       1.212      2.6601E-03
   7    9.998       8.964       7.923       6.876       5.822       4.751       3.588       2.403       1.208      2.6524E-03
   8    9.998       8.961       7.915       6.859       5.788       4.692       3.553       2.386       1.201      2.6370E-03
   9    9.998       8.958       7.907       6.844       5.765       4.662       3.529       2.372       1.195      2.6230E-03
  10    9.998       8.956       7.903       6.837       5.753       4.648       3.518       2.365       1.191      2.6152E-03
1
              HEAD IN LAYER   5 AT END OF TIME STEP  36 IN STRESS PERIOD    3
  ---------------------------------------------------------------------------

            1           2           3           4           5           6           7           8           9          10
 ........................................................................................................................
   1    9.998       8.948       7.888       6.814       5.725       4.618       3.491       2.345       1.181      2.5917E-03
   2    9.998       8.950       7.892       6.821       5.734       4.628       3.500       2.351       1.184      2.5985E-03
   3    9.998       8.953       7.900       6.834       5.752       4.648       3.517       2.363       1.190      2.6117E-03
   4    9.998       8.958       7.910       6.852       5.780       4.684       3.545       2.380       1.198      2.6297E-03
   5    9.998       8.963       7.921       6.873       5.818       4.745       3.584       2.400       1.206      2.6483E-03
   6    9.998       8.965       7.926       6.886       5.854       4.837       3.620       2.414       1.211      2.6587E-03
   7    9.998       8.964       7.923       6.875       5.821       4.748       3.587       2.403       1.208      2.6511E-03
   8    9.998       8.960       7.915       6.858       5.787       4.692       3.552       2.385       1.201      2.6357E-03
   9    9.998       8.957       7.907       6.844       5.764       4.661       3.529       2.371       1.194      2.6218E-03
  10    9.998       8.955       7.903       6.836       5.753       4.647       3.517       2.364       1.191      2.6140E-03

 HEAD WILL BE SAVED ON UNIT   51 AT END OF TIME STEP   36, STRESS PERIOD    3

 DRAWDOWN WILL BE SAVED ON UNIT   52 AT END OF TIME STEP   36, STRESS PERIOD    3
1
  VOLUMETRIC BUDGET FOR ENTIRE MODEL AT END OF TIME STEP   36, STRESS PERIOD   3
  ------------------------------------------------------------------------------

     CUMULATIVE VOLUMES      L**3       RATES FOR THIS TIME STEP      L**3/T
     ------------------                 ------------------------

           IN:                                      IN:
           ---                                      ---
             STORAGE =         587.9678               STORAGE =           8.8385
       CONSTANT HEAD =           0.0000         CONSTANT HEAD =           0.0000
               WELLS =       12160.0000                 WELLS =          60.0000
     HEAD DEP BOUNDS =      157579.1875       HEAD DEP BOUNDS =        1137.3711

            TOTAL IN =      170327.1562              TOTAL IN =        1206.2096

          OUT:                                     OUT:
          ----                                     ----
             STORAGE =        7419.4175               STORAGE =           3.4146
       CONSTANT HEAD =           0.0000         CONSTANT HEAD =           0.0000
               WELLS =           0.0000                 WELLS =           0.0000
     HEAD DEP BOUNDS =      162903.7969       HEAD DEP BOUNDS =        1202.7458

           TOTAL OUT =      170323.2188             TOTAL OUT =        1206.1604

            IN - OUT =           3.9375              IN - OUT =       4.9194E-02

 PERCENT DISCREPANCY =           0.00     PERCENT DISCREPANCY =           0.00






         TIME SUMMARY AT END OF TIME STEP   36 IN STRESS PERIOD    3
                    SECONDS     MINUTES      HOURS       DAYS        YEARS
                    -----------------------------------------------------------
   TIME STEP LENGTH  86400.      1440.0      24.000      1.0000     2.73785E-03
 STRESS PERIOD TIME 3.11040E+06  51840.      864.00      36.000     9.85626E-02
         TOTAL TIME 1.18368E+07 1.97280E+05  3288.0      137.00     0.37509    
1
 
 SOLVING FOR HEAD 

 OUTPUT CONTROL FOR STRESS PERIOD    3   TIME STEP   37
    SAVE HEAD FOR ALL LAYERS
    SAVE DRAWDOWN FOR ALL LAYERS
    SAVE BUDGET
    PRINT HEAD FOR ALL LAYERS
    PRINT BUDGET
 UBDSV1 SAVING "         STORAGE" ON UNIT  53 AT TIME STEP 37, STRESS PERIOD   3
 UBDSV2 SAVING "   CONSTANT HEAD" ON UNIT  53 AT TIME STEP 37, STRESS PERIOD   3
 UBDSV1 SAVING "FLOW RIGHT FACE " ON UNIT  53 AT TIME STEP 37, STRESS PERIOD   3
 UBDSV1 SAVING "FLOW FRONT FACE " ON UNIT  53 AT TIME STEP 37, STRESS PERIOD   3
 UBDSV1 SAVING "FLOW LOWER FACE " ON UNIT  53 AT TIME STEP 37, STRESS PERIOD   3

 SAVING SATURATED THICKNESS AND FLOW TERMS ON UNIT   54 FOR MT3DMS
 BY THE LINK-MT3DMS PACKAGE V7 AT TIME STEP   37, STRESS PERIOD    3

1
              HEAD IN LAYER   1 AT END OF TIME STEP  37 IN STRESS PERIOD    3
  ---------------------------------------------------------------------------

            1           2           3           4           5           6           7           8           9          10
 ........................................................................................................................
   1    9.998       8.952       7.892       6.819       5.730       4.623       3.496       2.350       1.186      1.5469E-03
   2    9.998       8.954       7.896       6.826       5.739       4.633       3.505       2.356       1.189      1.5512E-03
   3    9.998       8.958       7.904       6.839       5.757       4.654       3.523       2.369       1.195      1.5596E-03
   4    9.998       8.963       7.915       6.857       5.786       4.691       3.552       2.387       1.204      1.5712E-03
   5    9.998       8.967       7.926       6.878       5.826       4.761       3.592       2.407       1.213      1.5830E-03
   6    9.998       8.969       7.932       6.893       5.870       4.943       3.638       2.422       1.218      1.5897E-03
   7    9.998       8.968       7.928       6.881       5.829       4.765       3.596       2.410       1.214      1.5848E-03
   8    9.998       8.965       7.919       6.863       5.793       4.699       3.559       2.392       1.207      1.5748E-03
   9    9.998       8.961       7.912       6.849       5.769       4.667       3.535       2.377       1.200      1.5660E-03
  10    9.998       8.959       7.907       6.841       5.758       4.653       3.523       2.370       1.196      1.5609E-03
1
              HEAD IN LAYER   2 AT END OF TIME STEP  37 IN STRESS PERIOD    3
  ---------------------------------------------------------------------------

            1           2           3           4           5           6           7           8           9          10
 ........................................................................................................................
   1    9.998       8.950       7.890       6.817       5.728       4.621       3.494       2.348       1.184      2.5429E-03
   2    9.998       8.952       7.895       6.824       5.737       4.631       3.503       2.354       1.187      2.5497E-03
   3    9.998       8.956       7.903       6.837       5.755       4.652       3.521       2.367       1.193      2.5629E-03
   4    9.998       8.961       7.913       6.855       5.784       4.689       3.550       2.384       1.202      2.5809E-03
   5    9.998       8.965       7.924       6.876       5.823       4.758       3.589       2.405       1.210      2.5995E-03
   6    9.998       8.967       7.930       6.890       5.866       4.963       3.634       2.419       1.215      2.6099E-03
   7    9.998       8.966       7.926       6.879       5.827       4.761       3.593       2.407       1.212      2.6022E-03
   8    9.998       8.963       7.918       6.861       5.791       4.696       3.556       2.389       1.204      2.5868E-03
   9    9.998       8.960       7.910       6.847       5.767       4.665       3.532       2.375       1.198      2.5729E-03
  10    9.998       8.958       7.905       6.839       5.756       4.651       3.521       2.368       1.194      2.5650E-03
1
              HEAD IN LAYER   3 AT END OF TIME STEP  37 IN STRESS PERIOD    3
  ---------------------------------------------------------------------------

            1           2           3           4           5           6           7           8           9          10
 ........................................................................................................................
   1    9.998       8.949       7.889       6.816       5.727       4.620       3.493       2.346       1.182      2.5931E-03
   2    9.998       8.951       7.893       6.822       5.736       4.629       3.501       2.353       1.185      2.5999E-03
   3    9.998       8.955       7.901       6.835       5.754       4.650       3.519       2.365       1.191      2.6132E-03
   4    9.998       8.959       7.912       6.854       5.782       4.686       3.547       2.382       1.200      2.6313E-03
   5    9.998       8.964       7.922       6.874       5.821       4.752       3.587       2.402       1.208      2.6500E-03
   6    9.998       8.966       7.928       6.888       5.861       4.895       3.627       2.416       1.213      2.6605E-03
   7    9.998       8.965       7.924       6.877       5.824       4.755       3.590       2.405       1.210      2.6528E-03
   8    9.998       8.962       7.916       6.860       5.789       4.694       3.554       2.387       1.202      2.6373E-03
   9    9.998       8.958       7.908       6.845       5.766       4.663       3.531       2.373       1.196      2.6233E-03
  10    9.998       8.956       7.904       6.838       5.754       4.649       3.519       2.366       1.193      2.6155E-03
1
              HEAD IN LAYER   4 AT END OF TIME STEP  37 IN STRESS PERIOD    3
  ---------------------------------------------------------------------------

            1           2           3           4           5           6           7           8           9          10
 ........................................................................................................................
   1    9.998       8.948       7.888       6.815       5.726       4.619       3.492       2.345       1.181      2.5929E-03
   2    9.998       8.950       7.892       6.821       5.735       4.628       3.500       2.351       1.184      2.5997E-03
   3    9.998       8.954       7.900       6.834       5.752       4.649       3.518       2.363       1.190      2.6129E-03
   4    9.998       8.959       7.911       6.853       5.780       4.685       3.546       2.381       1.198      2.6308E-03
   5    9.998       8.963       7.921       6.873       5.819       4.747       3.584       2.401       1.207      2.6494E-03
   6    9.998       8.965       7.927       6.887       5.856       4.855       3.622       2.414       1.212      2.6598E-03
   7    9.998       8.964       7.923       6.876       5.822       4.751       3.587       2.403       1.208      2.6522E-03
   8    9.998       8.961       7.915       6.859       5.788       4.692       3.553       2.386       1.201      2.6369E-03
   9    9.998       8.958       7.907       6.844       5.765       4.662       3.529       2.372       1.195      2.6230E-03
  10    9.998       8.956       7.903       6.837       5.753       4.648       3.518       2.365       1.191      2.6152E-03
1
              HEAD IN LAYER   5 AT END OF TIME STEP  37 IN STRESS PERIOD    3
  ---------------------------------------------------------------------------

            1           2           3           4           5           6           7           8           9          10
 ........................................................................................................................
   1    9.998       8.948       7.888       6.814       5.725       4.618       3.491       2.345       1.181      2.5919E-03
   2    9.998       8.950       7.892       6.821       5.734       4.628       3.500       2.351       1.184      2.5986E-03
   3    9.998       8.953       7.900       6.834       5.752       4.648       3.517       2.363       1.190      2.6117E-03
   4    9.998       8.958       7.910       6.852       5.780       4.684       3.545       2.380       1.198      2.6296E-03
   5    9.998       8.963       7.921       6.872       5.818       4.744       3.583       2.400       1.206      2.6480E-03
   6    9.998       8.965       7.926       6.886       5.854       4.837       3.619       2.413       1.211      2.6584E-03
   7    9.998       8.964       7.923       6.875       5.821       4.748       3.586       2.402       1.208      2.6508E-03
   8    9.998       8.960       7.915       6.858       5.787       4.691       3.552       2.385       1.201      2.6356E-03
   9    9.998       8.957       7.907       6.844       5.764       4.661       3.529       2.371       1.194      2.6218E-03
  10    9.998       8.955       7.903       6.836       5.753       4.647       3.517       2.364       1.191      2.6141E-03

 HEAD WILL BE SAVED ON UNIT   51 AT END OF TIME STEP   37, STRESS PERIOD    3

 DRAWDOWN WILL BE SAVED ON UNIT   52 AT END OF TIME STEP   37, STRESS PERIOD    3
1
  VOLUMETRIC BUDGET FOR ENTIRE MODEL AT END OF TIME STEP   37, STRESS PERIOD   3
  ------------------------------------------------------------------------------

     CUMULATIVE VOLUMES      L**3       RATES FOR THIS TIME STEP      L**3/T
     ------------------                 ------------------------

           IN:                                      IN:
           ---                                      ---
             STORAGE =         596.5778               STORAGE =           8.6101
       CONSTANT HEAD =           0.0000         CONSTANT HEAD =           0.0000
               WELLS =       12220.0000                 WELLS =          60.0000
     HEAD DEP BOUNDS =      158716.5469       HEAD DEP BOUNDS =        1137.3524

            TOTAL IN =      171533.1250              TOTAL IN =        1205.9625

          OUT:                                     OUT:
          ----                                     ----
             STORAGE =        7422.6206               STORAGE =           3.2029
       CONSTANT HEAD =           0.0000         CONSTANT HEAD =           0.0000
               WELLS =           0.0000                 WELLS =           0.0000
     HEAD DEP BOUNDS =      164106.5156       HEAD DEP BOUNDS =        1202.7113

           TOTAL OUT =      171529.1406             TOTAL OUT =        1205.9142

            IN - OUT =           3.9844              IN - OUT =       4.8340E-02

 PERCENT DISCREPANCY =           0.00     PERCENT DISCREPANCY =           0.00






         TIME SUMMARY AT END OF TIME STEP   37 IN STRESS PERIOD    3
                    SECONDS     MINUTES      HOURS       DAYS        YEARS
                    -----------------------------------------------------------
   TIME STEP LENGTH  86400.      1440.0      24.000      1.0000     2.73785E-03
 STRESS PERIOD TIME 3.19680E+06  53280.      888.00      37.000     0.10130    
         TOTAL TIME 1.19232E+07 1.98720E+05  3312.0      138.00     0.37782    
1
 
 SOLVING FOR HEAD 

 OUTPUT CONTROL FOR STRESS PERIOD    3   TIME STEP   38
    SAVE HEAD FOR ALL LAYERS
    SAVE DRAWDOWN FOR ALL LAYERS
    SAVE BUDGET
    PRINT HEAD FOR ALL LAYERS
    PRINT BUDGET
 UBDSV1 SAVING "         STORAGE" ON UNIT  53 AT TIME STEP 38, STRESS PERIOD   3
 UBDSV2 SAVING "   CONSTANT HEAD" ON UNIT  53 AT TIME STEP 38, STRESS PERIOD   3
 UBDSV1 SAVING "FLOW RIGHT FACE " ON UNIT  53 AT TIME STEP 38, STRESS PERIOD   3
 UBDSV1 SAVING "FLOW FRONT FACE " ON UNIT  53 AT TIME STEP 38, STRESS PERIOD   3
 UBDSV1 SAVING "FLOW LOWER FACE " ON UNIT  53 AT TIME STEP 38, STRESS PERIOD   3

 SAVING SATURATED THICKNESS AND FLOW TERMS ON UNIT   54 FOR MT3DMS
 BY THE LINK-MT3DMS PACKAGE V7 AT TIME STEP   38, STRESS PERIOD    3

1
              HEAD IN LAYER   1 AT END OF TIME STEP  38 IN STRESS PERIOD    3
  ---------------------------------------------------------------------------

            1           2           3           4           5           6           7           8           9          10
 ........................................................................................................................
   1    9.998       8.952       7.892       6.819       5.730       4.623       3.496       2.350       1.186      1.5469E-03
   2    9.998       8.954       7.897       6.826       5.739       4.633       3.505       2.356       1.189      1.5513E-03
   3    9.998       8.958       7.905       6.839       5.757       4.654       3.523       2.369       1.195      1.5596E-03
   4    9.998       8.963       7.915       6.857       5.786       4.691       3.552       2.387       1.204      1.5710E-03
   5    9.998       8.967       7.926       6.878       5.826       4.761       3.592       2.407       1.213      1.5829E-03
   6    9.998       8.969       7.931       6.892       5.869       4.942       3.637       2.422       1.217      1.5896E-03
   7    9.998       8.968       7.928       6.881       5.829       4.764       3.595       2.410       1.214      1.5846E-03
   8    9.998       8.965       7.919       6.863       5.793       4.698       3.558       2.392       1.207      1.5747E-03
   9    9.998       8.961       7.912       6.849       5.769       4.667       3.535       2.377       1.200      1.5660E-03
  10    9.998       8.959       7.907       6.841       5.758       4.653       3.523       2.370       1.196      1.5610E-03
1
              HEAD IN LAYER   2 AT END OF TIME STEP  38 IN STRESS PERIOD    3
  ---------------------------------------------------------------------------

            1           2           3           4           5           6           7           8           9          10
 ........................................................................................................................
   1    9.998       8.950       7.891       6.817       5.728       4.621       3.494       2.348       1.184      2.5431E-03
   2    9.998       8.952       7.895       6.824       5.737       4.631       3.503       2.354       1.187      2.5498E-03
   3    9.998       8.956       7.903       6.837       5.755       4.652       3.521       2.367       1.193      2.5629E-03
   4    9.998       8.961       7.913       6.855       5.784       4.688       3.549       2.384       1.202      2.5808E-03
   5    9.998       8.965       7.924       6.876       5.823       4.757       3.589       2.405       1.210      2.5992E-03
   6    9.998       8.967       7.929       6.890       5.866       4.963       3.633       2.419       1.215      2.6096E-03
   7    9.998       8.966       7.926       6.879       5.826       4.761       3.592       2.407       1.211      2.6020E-03
   8    9.998       8.963       7.918       6.861       5.791       4.696       3.556       2.389       1.204      2.5867E-03
   9    9.998       8.960       7.910       6.847       5.767       4.665       3.532       2.375       1.198      2.5729E-03
  10    9.998       8.958       7.905       6.839       5.756       4.651       3.521       2.368       1.194      2.5651E-03
1
              HEAD IN LAYER   3 AT END OF TIME STEP  38 IN STRESS PERIOD    3
  ---------------------------------------------------------------------------

            1           2           3           4           5           6           7           8           9          10
 ........................................................................................................................
   1    9.998       8.949       7.889       6.816       5.727       4.620       3.493       2.347       1.182      2.5932E-03
   2    9.998       8.951       7.893       6.823       5.736       4.629       3.501       2.353       1.185      2.6000E-03
   3    9.998       8.955       7.901       6.835       5.754       4.650       3.519       2.365       1.191      2.6132E-03
   4    9.998       8.959       7.912       6.854       5.782       4.686       3.547       2.382       1.200      2.6312E-03
   5    9.998       8.964       7.922       6.874       5.820       4.752       3.586       2.402       1.208      2.6498E-03
   6    9.998       8.966       7.928       6.888       5.861       4.895       3.627       2.416       1.213      2.6602E-03
   7    9.998       8.965       7.924       6.877       5.824       4.755       3.589       2.405       1.209      2.6526E-03
   8    9.998       8.962       7.916       6.860       5.789       4.694       3.554       2.387       1.202      2.6372E-03
   9    9.998       8.958       7.908       6.845       5.766       4.663       3.530       2.373       1.196      2.6233E-03
  10    9.998       8.956       7.904       6.838       5.754       4.649       3.519       2.366       1.193      2.6155E-03
1
              HEAD IN LAYER   4 AT END OF TIME STEP  38 IN STRESS PERIOD    3
  ---------------------------------------------------------------------------

            1           2           3           4           5           6           7           8           9          10
 ........................................................................................................................
   1    9.998       8.948       7.888       6.815       5.726       4.619       3.492       2.345       1.181      2.5931E-03
   2    9.998       8.950       7.892       6.822       5.735       4.628       3.500       2.351       1.184      2.5998E-03
   3    9.998       8.954       7.900       6.834       5.752       4.649       3.518       2.363       1.190      2.6129E-03
   4    9.998       8.959       7.911       6.852       5.780       4.684       3.546       2.381       1.198      2.6307E-03
   5    9.998       8.963       7.921       6.873       5.819       4.747       3.584       2.401       1.207      2.6491E-03
   6    9.998       8.965       7.927       6.886       5.856       4.855       3.622       2.414       1.212      2.6595E-03
   7    9.998       8.964       7.923       6.876       5.822       4.750       3.587       2.403       1.208      2.6519E-03
   8    9.998       8.961       7.915       6.859       5.788       4.692       3.552       2.386       1.201      2.6367E-03
   9    9.998       8.958       7.908       6.844       5.765       4.662       3.529       2.372       1.195      2.6230E-03
  10    9.998       8.956       7.903       6.837       5.753       4.648       3.518       2.365       1.191      2.6153E-03
1
              HEAD IN LAYER   5 AT END OF TIME STEP  38 IN STRESS PERIOD    3
  ---------------------------------------------------------------------------

            1           2           3           4           5           6           7           8           9          10
 ........................................................................................................................
   1    9.998       8.948       7.888       6.815       5.726       4.618       3.491       2.345       1.181      2.5920E-03
   2    9.998       8.950       7.892       6.821       5.734       4.628       3.500       2.351       1.184      2.5987E-03
   3    9.998       8.954       7.900       6.834       5.752       4.648       3.517       2.363       1.190      2.6117E-03
   4    9.998       8.958       7.910       6.852       5.780       4.684       3.545       2.380       1.198      2.6295E-03
   5    9.998       8.963       7.921       6.872       5.818       4.744       3.583       2.400       1.206      2.6478E-03
   6    9.998       8.965       7.926       6.886       5.853       4.836       3.619       2.413       1.211      2.6581E-03
   7    9.998       8.964       7.923       6.875       5.821       4.747       3.586       2.402       1.207      2.6506E-03
   8    9.998       8.960       7.915       6.858       5.787       4.691       3.552       2.385       1.201      2.6355E-03
   9    9.998       8.957       7.907       6.844       5.764       4.661       3.529       2.371       1.194      2.6218E-03
  10    9.998       8.955       7.903       6.836       5.753       4.647       3.517       2.364       1.191      2.6142E-03

 HEAD WILL BE SAVED ON UNIT   51 AT END OF TIME STEP   38, STRESS PERIOD    3

 DRAWDOWN WILL BE SAVED ON UNIT   52 AT END OF TIME STEP   38, STRESS PERIOD    3
1
  VOLUMETRIC BUDGET FOR ENTIRE MODEL AT END OF TIME STEP   38, STRESS PERIOD   3
  ------------------------------------------------------------------------------

     CUMULATIVE VOLUMES      L**3       RATES FOR THIS TIME STEP      L**3/T
     ------------------                 ------------------------

           IN:                                      IN:
           ---                                      ---
             STORAGE =         604.9743               STORAGE =           8.3965
       CONSTANT HEAD =           0.0000         CONSTANT HEAD =           0.0000
               WELLS =       12280.0000                 WELLS =          60.0000
     HEAD DEP BOUNDS =      159853.8906       HEAD DEP BOUNDS =        1137.3361

            TOTAL IN =      172738.8594              TOTAL IN =        1205.7325

          OUT:                                     OUT:
          ----                                     ----
             STORAGE =        7425.6270               STORAGE =           3.0062
       CONSTANT HEAD =           0.0000         CONSTANT HEAD =           0.0000
               WELLS =           0.0000                 WELLS =           0.0000
     HEAD DEP BOUNDS =      165309.1875       HEAD DEP BOUNDS =        1202.6769

           TOTAL OUT =      172734.8125             TOTAL OUT =        1205.6831

            IN - OUT =           4.0469              IN - OUT =       4.9438E-02

 PERCENT DISCREPANCY =           0.00     PERCENT DISCREPANCY =           0.00






         TIME SUMMARY AT END OF TIME STEP   38 IN STRESS PERIOD    3
                    SECONDS     MINUTES      HOURS       DAYS        YEARS
                    -----------------------------------------------------------
   TIME STEP LENGTH  86400.      1440.0      24.000      1.0000     2.73785E-03
 STRESS PERIOD TIME 3.28320E+06  54720.      912.00      38.000     0.10404    
         TOTAL TIME 1.20096E+07 2.00160E+05  3336.0      139.00     0.38056    
1
 
 SOLVING FOR HEAD 

 OUTPUT CONTROL FOR STRESS PERIOD    3   TIME STEP   39
    SAVE HEAD FOR ALL LAYERS
    SAVE DRAWDOWN FOR ALL LAYERS
    SAVE BUDGET
    PRINT HEAD FOR ALL LAYERS
    PRINT BUDGET
 UBDSV1 SAVING "         STORAGE" ON UNIT  53 AT TIME STEP 39, STRESS PERIOD   3
 UBDSV2 SAVING "   CONSTANT HEAD" ON UNIT  53 AT TIME STEP 39, STRESS PERIOD   3
 UBDSV1 SAVING "FLOW RIGHT FACE " ON UNIT  53 AT TIME STEP 39, STRESS PERIOD   3
 UBDSV1 SAVING "FLOW FRONT FACE " ON UNIT  53 AT TIME STEP 39, STRESS PERIOD   3
 UBDSV1 SAVING "FLOW LOWER FACE " ON UNIT  53 AT TIME STEP 39, STRESS PERIOD   3

 SAVING SATURATED THICKNESS AND FLOW TERMS ON UNIT   54 FOR MT3DMS
 BY THE LINK-MT3DMS PACKAGE V7 AT TIME STEP   39, STRESS PERIOD    3

1
              HEAD IN LAYER   1 AT END OF TIME STEP  39 IN STRESS PERIOD    3
  ---------------------------------------------------------------------------

            1           2           3           4           5           6           7           8           9          10
 ........................................................................................................................
   1    9.998       8.952       7.892       6.819       5.730       4.623       3.496       2.350       1.186      1.5470E-03
   2    9.998       8.954       7.897       6.826       5.739       4.633       3.505       2.356       1.189      1.5514E-03
   3    9.998       8.958       7.905       6.839       5.757       4.654       3.523       2.369       1.195      1.5596E-03
   4    9.998       8.963       7.915       6.857       5.786       4.691       3.552       2.387       1.204      1.5709E-03
   5    9.998       8.967       7.926       6.878       5.825       4.760       3.592       2.407       1.212      1.5827E-03
   6    9.998       8.969       7.931       6.892       5.869       4.942       3.637       2.421       1.217      1.5894E-03
   7    9.998       8.968       7.928       6.881       5.829       4.764       3.595       2.409       1.214      1.5845E-03
   8    9.998       8.965       7.919       6.863       5.793       4.698       3.558       2.392       1.206      1.5747E-03
   9    9.998       8.961       7.912       6.849       5.769       4.667       3.534       2.377       1.200      1.5660E-03
  10    9.998       8.959       7.907       6.841       5.758       4.653       3.523       2.370       1.196      1.5610E-03
1
              HEAD IN LAYER   2 AT END OF TIME STEP  39 IN STRESS PERIOD    3
  ---------------------------------------------------------------------------

            1           2           3           4           5           6           7           8           9          10
 ........................................................................................................................
   1    9.998       8.950       7.891       6.818       5.729       4.621       3.495       2.348       1.184      2.5432E-03
   2    9.998       8.952       7.895       6.824       5.737       4.631       3.503       2.354       1.187      2.5499E-03
   3    9.998       8.956       7.903       6.837       5.755       4.652       3.521       2.367       1.193      2.5629E-03
   4    9.998       8.961       7.913       6.855       5.783       4.688       3.549       2.384       1.202      2.5806E-03
   5    9.998       8.965       7.924       6.876       5.823       4.757       3.589       2.404       1.210      2.5990E-03
   6    9.998       8.967       7.929       6.890       5.866       4.963       3.633       2.418       1.215      2.6094E-03
   7    9.998       8.966       7.926       6.879       5.826       4.760       3.592       2.407       1.211      2.6017E-03
   8    9.998       8.963       7.918       6.861       5.791       4.696       3.556       2.389       1.204      2.5866E-03
   9    9.998       8.960       7.910       6.847       5.767       4.665       3.532       2.375       1.198      2.5729E-03
  10    9.998       8.958       7.906       6.839       5.756       4.651       3.521       2.368       1.194      2.5652E-03
1
              HEAD IN LAYER   3 AT END OF TIME STEP  39 IN STRESS PERIOD    3
  ---------------------------------------------------------------------------

            1           2           3           4           5           6           7           8           9          10
 ........................................................................................................................
   1    9.998       8.949       7.889       6.816       5.727       4.620       3.493       2.347       1.182      2.5934E-03
   2    9.998       8.951       7.893       6.823       5.736       4.630       3.501       2.353       1.185      2.6001E-03
   3    9.998       8.955       7.901       6.835       5.754       4.650       3.519       2.365       1.191      2.6132E-03
   4    9.998       8.959       7.912       6.853       5.781       4.686       3.547       2.382       1.200      2.6310E-03
   5    9.998       8.964       7.922       6.874       5.820       4.751       3.586       2.402       1.208      2.6495E-03
   6    9.998       8.966       7.928       6.888       5.860       4.894       3.627       2.416       1.213      2.6599E-03
   7    9.998       8.965       7.924       6.877       5.823       4.755       3.589       2.404       1.209      2.6523E-03
   8    9.998       8.962       7.916       6.860       5.789       4.693       3.554       2.387       1.202      2.6371E-03
   9    9.998       8.958       7.908       6.846       5.766       4.663       3.530       2.373       1.196      2.6233E-03
  10    9.998       8.957       7.904       6.838       5.754       4.649       3.519       2.366       1.193      2.6156E-03
1
              HEAD IN LAYER   4 AT END OF TIME STEP  39 IN STRESS PERIOD    3
  ---------------------------------------------------------------------------

            1           2           3           4           5           6           7           8           9          10
 ........................................................................................................................
   1    9.998       8.948       7.888       6.815       5.726       4.619       3.492       2.345       1.181      2.5932E-03
   2    9.998       8.950       7.893       6.822       5.735       4.628       3.500       2.351       1.184      2.5999E-03
   3    9.998       8.954       7.900       6.834       5.752       4.649       3.518       2.363       1.190      2.6128E-03
   4    9.998       8.959       7.911       6.852       5.780       4.684       3.545       2.381       1.198      2.6306E-03
   5    9.998       8.963       7.921       6.873       5.818       4.746       3.584       2.400       1.207      2.6489E-03
   6    9.998       8.965       7.927       6.886       5.856       4.854       3.622       2.414       1.211      2.6592E-03
   7    9.998       8.964       7.923       6.876       5.822       4.750       3.587       2.403       1.208      2.6517E-03
   8    9.998       8.961       7.915       6.858       5.787       4.692       3.552       2.386       1.201      2.6366E-03
   9    9.998       8.958       7.908       6.845       5.765       4.662       3.529       2.372       1.195      2.6230E-03
  10    9.998       8.956       7.903       6.837       5.753       4.648       3.518       2.365       1.191      2.6153E-03
1
              HEAD IN LAYER   5 AT END OF TIME STEP  39 IN STRESS PERIOD    3
  ---------------------------------------------------------------------------

            1           2           3           4           5           6           7           8           9          10
 ........................................................................................................................
   1    9.998       8.948       7.888       6.815       5.726       4.618       3.491       2.345       1.181      2.5921E-03
   2    9.998       8.950       7.892       6.821       5.734       4.628       3.500       2.351       1.184      2.5988E-03
   3    9.998       8.954       7.900       6.834       5.752       4.648       3.517       2.363       1.190      2.6117E-03
   4    9.998       8.958       7.910       6.852       5.780       4.683       3.545       2.380       1.198      2.6293E-03
   5    9.998       8.963       7.920       6.872       5.817       4.744       3.583       2.400       1.206      2.6476E-03
   6    9.998       8.965       7.926       6.886       5.853       4.836       3.619       2.413       1.211      2.6578E-03
   7    9.998       8.964       7.923       6.875       5.821       4.747       3.586       2.402       1.207      2.6504E-03
   8    9.998       8.960       7.915       6.858       5.787       4.691       3.551       2.385       1.201      2.6354E-03
   9    9.998       8.957       7.907       6.844       5.764       4.661       3.529       2.371       1.194      2.6218E-03
  10    9.998       8.955       7.903       6.837       5.753       4.648       3.517       2.364       1.191      2.6142E-03

 HEAD WILL BE SAVED ON UNIT   51 AT END OF TIME STEP   39, STRESS PERIOD    3

 DRAWDOWN WILL BE SAVED ON UNIT   52 AT END OF TIME STEP   39, STRESS PERIOD    3
1
  VOLUMETRIC BUDGET FOR ENTIRE MODEL AT END OF TIME STEP   39, STRESS PERIOD   3
  ------------------------------------------------------------------------------

     CUMULATIVE VOLUMES      L**3       RATES FOR THIS TIME STEP      L**3/T
     ------------------                 ------------------------

           IN:                                      IN:
           ---                                      ---
             STORAGE =         613.1636               STORAGE =           8.1893
       CONSTANT HEAD =           0.0000         CONSTANT HEAD =           0.0000
               WELLS =       12340.0000                 WELLS =          60.0000
     HEAD DEP BOUNDS =      160991.2188       HEAD DEP BOUNDS =        1137.3218

            TOTAL IN =      173944.3750              TOTAL IN =        1205.5111

          OUT:                                     OUT:
          ----                                     ----
             STORAGE =        7428.4497               STORAGE =           2.8226
       CONSTANT HEAD =           0.0000         CONSTANT HEAD =           0.0000
               WELLS =           0.0000                 WELLS =           0.0000
     HEAD DEP BOUNDS =      166511.8281       HEAD DEP BOUNDS =        1202.6418

           TOTAL OUT =      173940.2812             TOTAL OUT =        1205.4645

            IN - OUT =           4.0938              IN - OUT =       4.6631E-02

 PERCENT DISCREPANCY =           0.00     PERCENT DISCREPANCY =           0.00






         TIME SUMMARY AT END OF TIME STEP   39 IN STRESS PERIOD    3
                    SECONDS     MINUTES      HOURS       DAYS        YEARS
                    -----------------------------------------------------------
   TIME STEP LENGTH  86400.      1440.0      24.000      1.0000     2.73785E-03
 STRESS PERIOD TIME 3.36960E+06  56160.      936.00      39.000     0.10678    
         TOTAL TIME 1.20960E+07 2.01600E+05  3360.0      140.00     0.38330    
1
 
 SOLVING FOR HEAD 

 OUTPUT CONTROL FOR STRESS PERIOD    3   TIME STEP   40
    SAVE HEAD FOR ALL LAYERS
    SAVE DRAWDOWN FOR ALL LAYERS
    SAVE BUDGET
    PRINT HEAD FOR ALL LAYERS
    PRINT BUDGET
 UBDSV1 SAVING "         STORAGE" ON UNIT  53 AT TIME STEP 40, STRESS PERIOD   3
 UBDSV2 SAVING "   CONSTANT HEAD" ON UNIT  53 AT TIME STEP 40, STRESS PERIOD   3
 UBDSV1 SAVING "FLOW RIGHT FACE " ON UNIT  53 AT TIME STEP 40, STRESS PERIOD   3
 UBDSV1 SAVING "FLOW FRONT FACE " ON UNIT  53 AT TIME STEP 40, STRESS PERIOD   3
 UBDSV1 SAVING "FLOW LOWER FACE " ON UNIT  53 AT TIME STEP 40, STRESS PERIOD   3

 SAVING SATURATED THICKNESS AND FLOW TERMS ON UNIT   54 FOR MT3DMS
 BY THE LINK-MT3DMS PACKAGE V7 AT TIME STEP   40, STRESS PERIOD    3

1
              HEAD IN LAYER   1 AT END OF TIME STEP  40 IN STRESS PERIOD    3
  ---------------------------------------------------------------------------

            1           2           3           4           5           6           7           8           9          10
 ........................................................................................................................
   1    9.998       8.952       7.893       6.819       5.730       4.623       3.497       2.350       1.186      1.5471E-03
   2    9.998       8.954       7.897       6.826       5.739       4.633       3.505       2.356       1.189      1.5514E-03
   3    9.998       8.958       7.905       6.839       5.757       4.654       3.523       2.369       1.195      1.5596E-03
   4    9.998       8.963       7.915       6.857       5.785       4.690       3.551       2.386       1.204      1.5708E-03
   5    9.998       8.967       7.926       6.878       5.825       4.760       3.591       2.407       1.212      1.5826E-03
   6    9.998       8.969       7.931       6.892       5.868       4.941       3.636       2.421       1.217      1.5892E-03
   7    9.998       8.968       7.928       6.881       5.828       4.763       3.594       2.409       1.214      1.5843E-03
   8    9.998       8.965       7.919       6.863       5.793       4.698       3.558       2.391       1.206      1.5746E-03
   9    9.998       8.961       7.912       6.849       5.769       4.667       3.534       2.377       1.200      1.5660E-03
  10    9.998       8.960       7.907       6.841       5.758       4.653       3.523       2.370       1.196      1.5611E-03
1
              HEAD IN LAYER   2 AT END OF TIME STEP  40 IN STRESS PERIOD    3
  ---------------------------------------------------------------------------

            1           2           3           4           5           6           7           8           9          10
 ........................................................................................................................
   1    9.998       8.950       7.891       6.818       5.729       4.622       3.495       2.348       1.184      2.5433E-03
   2    9.998       8.952       7.895       6.824       5.737       4.631       3.503       2.355       1.187      2.5500E-03
   3    9.998       8.956       7.903       6.837       5.755       4.652       3.521       2.367       1.193      2.5629E-03
   4    9.998       8.961       7.913       6.855       5.783       4.688       3.549       2.384       1.201      2.5805E-03
   5    9.998       8.965       7.924       6.876       5.822       4.757       3.588       2.404       1.210      2.5988E-03
   6    9.998       8.967       7.929       6.890       5.865       4.962       3.632       2.418       1.215      2.6091E-03
   7    9.998       8.966       7.926       6.878       5.826       4.760       3.592       2.407       1.211      2.6015E-03
   8    9.998       8.963       7.918       6.861       5.790       4.695       3.556       2.389       1.204      2.5864E-03
   9    9.998       8.960       7.910       6.847       5.767       4.664       3.532       2.375       1.198      2.5728E-03
  10    9.998       8.958       7.906       6.839       5.756       4.651       3.521       2.368       1.194      2.5652E-03
1
              HEAD IN LAYER   3 AT END OF TIME STEP  40 IN STRESS PERIOD    3
  ---------------------------------------------------------------------------

            1           2           3           4           5           6           7           8           9          10
 ........................................................................................................................
   1    9.998       8.949       7.889       6.816       5.727       4.620       3.493       2.347       1.182      2.5935E-03
   2    9.998       8.951       7.894       6.823       5.736       4.630       3.502       2.353       1.186      2.6002E-03
   3    9.998       8.955       7.901       6.835       5.753       4.650       3.519       2.365       1.191      2.6132E-03
   4    9.998       8.959       7.912       6.853       5.781       4.686       3.547       2.382       1.200      2.6309E-03
   5    9.998       8.964       7.922       6.874       5.820       4.751       3.586       2.402       1.208      2.6493E-03
   6    9.998       8.966       7.928       6.888       5.860       4.894       3.626       2.415       1.213      2.6597E-03
   7    9.998       8.965       7.924       6.877       5.823       4.754       3.589       2.404       1.209      2.6521E-03
   8    9.998       8.962       7.916       6.860       5.789       4.693       3.554       2.387       1.202      2.6370E-03
   9    9.998       8.958       7.909       6.846       5.766       4.663       3.530       2.373       1.196      2.6233E-03
  10    9.998       8.957       7.904       6.838       5.754       4.649       3.519       2.366       1.193      2.6156E-03
1
              HEAD IN LAYER   4 AT END OF TIME STEP  40 IN STRESS PERIOD    3
  ---------------------------------------------------------------------------

            1           2           3           4           5           6           7           8           9          10
 ........................................................................................................................
   1    9.998       8.948       7.889       6.815       5.726       4.619       3.492       2.346       1.181      2.5933E-03
   2    9.998       8.950       7.893       6.822       5.735       4.629       3.500       2.352       1.184      2.5999E-03
   3    9.998       8.954       7.900       6.834       5.752       4.649       3.518       2.363       1.190      2.6128E-03
   4    9.998       8.959       7.911       6.852       5.780       4.684       3.545       2.380       1.198      2.6304E-03
   5    9.998       8.963       7.921       6.872       5.818       4.746       3.583       2.400       1.207      2.6487E-03
   6    9.998       8.965       7.927       6.886       5.855       4.854       3.621       2.414       1.211      2.6590E-03
   7    9.998       8.964       7.923       6.875       5.821       4.750       3.587       2.403       1.208      2.6515E-03
   8    9.998       8.961       7.915       6.858       5.787       4.692       3.552       2.386       1.201      2.6365E-03
   9    9.998       8.958       7.908       6.845       5.765       4.661       3.529       2.372       1.195      2.6230E-03
  10    9.998       8.956       7.903       6.837       5.753       4.648       3.518       2.365       1.191      2.6154E-03
1
              HEAD IN LAYER   5 AT END OF TIME STEP  40 IN STRESS PERIOD    3
  ---------------------------------------------------------------------------

            1           2           3           4           5           6           7           8           9          10
 ........................................................................................................................
   1    9.998       8.948       7.888       6.815       5.726       4.619       3.491       2.345       1.181      2.5922E-03
   2    9.998       8.950       7.892       6.821       5.734       4.628       3.500       2.351       1.184      2.5988E-03
   3    9.998       8.954       7.900       6.834       5.752       4.648       3.517       2.363       1.190      2.6116E-03
   4    9.998       8.958       7.910       6.852       5.779       4.683       3.545       2.380       1.198      2.6292E-03
   5    9.998       8.962       7.920       6.872       5.817       4.743       3.582       2.399       1.206      2.6473E-03
   6    9.998       8.965       7.926       6.885       5.853       4.836       3.618       2.413       1.211      2.6576E-03
   7    9.998       8.964       7.922       6.875       5.820       4.747       3.585       2.402       1.207      2.6501E-03
   8    9.998       8.960       7.915       6.858       5.787       4.691       3.551       2.385       1.200      2.6352E-03
   9    9.998       8.957       7.907       6.844       5.764       4.661       3.529       2.371       1.194      2.6218E-03
  10    9.998       8.955       7.903       6.837       5.753       4.648       3.517       2.364       1.191      2.6142E-03

 HEAD WILL BE SAVED ON UNIT   51 AT END OF TIME STEP   40, STRESS PERIOD    3

 DRAWDOWN WILL BE SAVED ON UNIT   52 AT END OF TIME STEP   40, STRESS PERIOD    3
1
  VOLUMETRIC BUDGET FOR ENTIRE MODEL AT END OF TIME STEP   40, STRESS PERIOD   3
  ------------------------------------------------------------------------------

     CUMULATIVE VOLUMES      L**3       RATES FOR THIS TIME STEP      L**3/T
     ------------------                 ------------------------

           IN:                                      IN:
           ---                                      ---
             STORAGE =         621.1561               STORAGE =           7.9925
       CONSTANT HEAD =           0.0000         CONSTANT HEAD =           0.0000
               WELLS =       12400.0000                 WELLS =          60.0000
     HEAD DEP BOUNDS =      162128.5312       HEAD DEP BOUNDS =        1137.3096

            TOTAL IN =      175149.6875              TOTAL IN =        1205.3021

          OUT:                                     OUT:
          ----                                     ----
             STORAGE =        7431.0918               STORAGE =           2.6421
       CONSTANT HEAD =           0.0000         CONSTANT HEAD =           0.0000
               WELLS =           0.0000                 WELLS =           0.0000
     HEAD DEP BOUNDS =      167714.4375       HEAD DEP BOUNDS =        1202.6055

           TOTAL OUT =      175145.5312             TOTAL OUT =        1205.2476

            IN - OUT =           4.1562              IN - OUT =       5.4565E-02

 PERCENT DISCREPANCY =           0.00     PERCENT DISCREPANCY =           0.00






         TIME SUMMARY AT END OF TIME STEP   40 IN STRESS PERIOD    3
                    SECONDS     MINUTES      HOURS       DAYS        YEARS
                    -----------------------------------------------------------
   TIME STEP LENGTH  86400.      1440.0      24.000      1.0000     2.73785E-03
 STRESS PERIOD TIME 3.45600E+06  57600.      960.00      40.000     0.10951    
         TOTAL TIME 1.21824E+07 2.03040E+05  3384.0      141.00     0.38604    
1
 
 SOLVING FOR HEAD 

 OUTPUT CONTROL FOR STRESS PERIOD    3   TIME STEP   41
    SAVE HEAD FOR ALL LAYERS
    SAVE DRAWDOWN FOR ALL LAYERS
    SAVE BUDGET
    PRINT HEAD FOR ALL LAYERS
    PRINT BUDGET
 UBDSV1 SAVING "         STORAGE" ON UNIT  53 AT TIME STEP 41, STRESS PERIOD   3
 UBDSV2 SAVING "   CONSTANT HEAD" ON UNIT  53 AT TIME STEP 41, STRESS PERIOD   3
 UBDSV1 SAVING "FLOW RIGHT FACE " ON UNIT  53 AT TIME STEP 41, STRESS PERIOD   3
 UBDSV1 SAVING "FLOW FRONT FACE " ON UNIT  53 AT TIME STEP 41, STRESS PERIOD   3
 UBDSV1 SAVING "FLOW LOWER FACE " ON UNIT  53 AT TIME STEP 41, STRESS PERIOD   3

 SAVING SATURATED THICKNESS AND FLOW TERMS ON UNIT   54 FOR MT3DMS
 BY THE LINK-MT3DMS PACKAGE V7 AT TIME STEP   41, STRESS PERIOD    3

1
              HEAD IN LAYER   1 AT END OF TIME STEP  41 IN STRESS PERIOD    3
  ---------------------------------------------------------------------------

            1           2           3           4           5           6           7           8           9          10
 ........................................................................................................................
   1    9.998       8.952       7.893       6.820       5.731       4.624       3.497       2.350       1.186      1.5472E-03
   2    9.998       8.954       7.897       6.826       5.739       4.633       3.505       2.357       1.189      1.5515E-03
   3    9.998       8.958       7.905       6.839       5.757       4.654       3.523       2.369       1.195      1.5596E-03
   4    9.998       8.963       7.915       6.857       5.785       4.690       3.551       2.386       1.204      1.5708E-03
   5    9.998       8.967       7.925       6.878       5.825       4.760       3.591       2.407       1.212      1.5824E-03
   6    9.998       8.969       7.931       6.892       5.868       4.941       3.636       2.421       1.217      1.5890E-03
   7    9.998       8.968       7.927       6.880       5.828       4.763       3.594       2.409       1.213      1.5841E-03
   8    9.998       8.965       7.919       6.863       5.792       4.698       3.558       2.391       1.206      1.5745E-03
   9    9.998       8.962       7.912       6.849       5.769       4.667       3.534       2.377       1.200      1.5660E-03
  10    9.998       8.960       7.907       6.841       5.758       4.653       3.523       2.370       1.196      1.5611E-03
1
              HEAD IN LAYER   2 AT END OF TIME STEP  41 IN STRESS PERIOD    3
  ---------------------------------------------------------------------------

            1           2           3           4           5           6           7           8           9          10
 ........................................................................................................................
   1    9.998       8.951       7.891       6.818       5.729       4.622       3.495       2.349       1.184      2.5434E-03
   2    9.998       8.952       7.895       6.824       5.737       4.631       3.503       2.355       1.187      2.5501E-03
   3    9.998       8.956       7.903       6.837       5.755       4.652       3.521       2.367       1.193      2.5629E-03
   4    9.998       8.961       7.913       6.855       5.783       4.688       3.549       2.384       1.201      2.5804E-03
   5    9.998       8.965       7.923       6.875       5.822       4.756       3.588       2.404       1.210      2.5985E-03
   6    9.998       8.967       7.929       6.889       5.865       4.962       3.632       2.418       1.215      2.6088E-03
   7    9.998       8.966       7.925       6.878       5.825       4.760       3.591       2.406       1.211      2.6013E-03
   8    9.998       8.963       7.918       6.861       5.790       4.695       3.556       2.389       1.204      2.5863E-03
   9    9.998       8.960       7.910       6.847       5.767       4.664       3.532       2.375       1.198      2.5728E-03
  10    9.998       8.958       7.906       6.840       5.756       4.651       3.521       2.368       1.194      2.5653E-03
1
              HEAD IN LAYER   3 AT END OF TIME STEP  41 IN STRESS PERIOD    3
  ---------------------------------------------------------------------------

            1           2           3           4           5           6           7           8           9          10
 ........................................................................................................................
   1    9.998       8.949       7.890       6.816       5.727       4.620       3.493       2.347       1.183      2.5936E-03
   2    9.998       8.951       7.894       6.823       5.736       4.630       3.502       2.353       1.186      2.6002E-03
   3    9.998       8.955       7.901       6.835       5.753       4.650       3.519       2.365       1.191      2.6131E-03
   4    9.998       8.959       7.912       6.853       5.781       4.686       3.547       2.382       1.199      2.6308E-03
   5    9.998       8.964       7.922       6.874       5.820       4.750       3.585       2.402       1.208      2.6491E-03
   6    9.998       8.966       7.928       6.887       5.860       4.894       3.626       2.415       1.213      2.6594E-03
   7    9.998       8.965       7.924       6.876       5.823       4.754       3.588       2.404       1.209      2.6519E-03
   8    9.998       8.962       7.916       6.859       5.788       4.693       3.553       2.387       1.202      2.6368E-03
   9    9.998       8.959       7.909       6.846       5.766       4.663       3.530       2.373       1.196      2.6233E-03
  10    9.998       8.957       7.904       6.838       5.755       4.649       3.519       2.366       1.193      2.6157E-03
1
              HEAD IN LAYER   4 AT END OF TIME STEP  41 IN STRESS PERIOD    3
  ---------------------------------------------------------------------------

            1           2           3           4           5           6           7           8           9          10
 ........................................................................................................................
   1    9.998       8.948       7.889       6.815       5.726       4.619       3.492       2.346       1.181      2.5934E-03
   2    9.998       8.950       7.893       6.822       5.735       4.629       3.500       2.352       1.184      2.6000E-03
   3    9.998       8.954       7.900       6.834       5.752       4.649       3.518       2.363       1.190      2.6128E-03
   4    9.998       8.959       7.911       6.852       5.780       4.684       3.545       2.380       1.198      2.6303E-03
   5    9.998       8.963       7.921       6.872       5.818       4.746       3.583       2.400       1.207      2.6484E-03
   6    9.998       8.965       7.926       6.886       5.855       4.854       3.621       2.413       1.211      2.6587E-03
   7    9.998       8.964       7.923       6.875       5.821       4.749       3.586       2.402       1.208      2.6513E-03
   8    9.998       8.961       7.915       6.858       5.787       4.691       3.552       2.385       1.201      2.6364E-03
   9    9.998       8.958       7.908       6.845       5.765       4.661       3.529       2.372       1.195      2.6229E-03
  10    9.998       8.956       7.903       6.837       5.753       4.648       3.518       2.365       1.191      2.6154E-03
1
              HEAD IN LAYER   5 AT END OF TIME STEP  41 IN STRESS PERIOD    3
  ---------------------------------------------------------------------------

            1           2           3           4           5           6           7           8           9          10
 ........................................................................................................................
   1    9.998       8.948       7.888       6.815       5.726       4.619       3.492       2.345       1.181      2.5923E-03
   2    9.998       8.950       7.892       6.821       5.734       4.628       3.500       2.351       1.184      2.5989E-03
   3    9.998       8.954       7.900       6.834       5.752       4.648       3.517       2.363       1.190      2.6116E-03
   4    9.998       8.958       7.910       6.852       5.779       4.683       3.544       2.380       1.198      2.6291E-03
   5    9.998       8.962       7.920       6.872       5.817       4.743       3.582       2.399       1.206      2.6471E-03
   6    9.998       8.965       7.926       6.885       5.853       4.835       3.618       2.412       1.211      2.6573E-03
   7    9.998       8.964       7.922       6.875       5.820       4.747       3.585       2.402       1.207      2.6499E-03
   8    9.998       8.960       7.915       6.858       5.786       4.691       3.551       2.385       1.200      2.6351E-03
   9    9.998       8.957       7.907       6.844       5.764       4.661       3.528       2.371       1.194      2.6218E-03
  10    9.998       8.955       7.903       6.837       5.753       4.648       3.517       2.364       1.191      2.6143E-03

 HEAD WILL BE SAVED ON UNIT   51 AT END OF TIME STEP   41, STRESS PERIOD    3

 DRAWDOWN WILL BE SAVED ON UNIT   52 AT END OF TIME STEP   41, STRESS PERIOD    3
1
  VOLUMETRIC BUDGET FOR ENTIRE MODEL AT END OF TIME STEP   41, STRESS PERIOD   3
  ------------------------------------------------------------------------------

     CUMULATIVE VOLUMES      L**3       RATES FOR THIS TIME STEP      L**3/T
     ------------------                 ------------------------

           IN:                                      IN:
           ---                                      ---
             STORAGE =         628.9559               STORAGE =           7.7998
       CONSTANT HEAD =           0.0000         CONSTANT HEAD =           0.0000
               WELLS =       12460.0000                 WELLS =          60.0000
     HEAD DEP BOUNDS =      163265.8281       HEAD DEP BOUNDS =        1137.2992

            TOTAL IN =      176354.7812              TOTAL IN =        1205.0990

          OUT:                                     OUT:
          ----                                     ----
             STORAGE =        7433.5703               STORAGE =           2.4786
       CONSTANT HEAD =           0.0000         CONSTANT HEAD =           0.0000
               WELLS =           0.0000                 WELLS =           0.0000
     HEAD DEP BOUNDS =      168917.0000       HEAD DEP BOUNDS =        1202.5677

           TOTAL OUT =      176350.5625             TOTAL OUT =        1205.0463

            IN - OUT =           4.2188              IN - OUT =       5.2734E-02

 PERCENT DISCREPANCY =           0.00     PERCENT DISCREPANCY =           0.00






         TIME SUMMARY AT END OF TIME STEP   41 IN STRESS PERIOD    3
                    SECONDS     MINUTES      HOURS       DAYS        YEARS
                    -----------------------------------------------------------
   TIME STEP LENGTH  86400.      1440.0      24.000      1.0000     2.73785E-03
 STRESS PERIOD TIME 3.54240E+06  59040.      984.00      41.000     0.11225    
         TOTAL TIME 1.22688E+07 2.04480E+05  3408.0      142.00     0.38877    
1
 
 SOLVING FOR HEAD 

 OUTPUT CONTROL FOR STRESS PERIOD    3   TIME STEP   42
    SAVE HEAD FOR ALL LAYERS
    SAVE DRAWDOWN FOR ALL LAYERS
    SAVE BUDGET
    PRINT HEAD FOR ALL LAYERS
    PRINT BUDGET
 UBDSV1 SAVING "         STORAGE" ON UNIT  53 AT TIME STEP 42, STRESS PERIOD   3
 UBDSV2 SAVING "   CONSTANT HEAD" ON UNIT  53 AT TIME STEP 42, STRESS PERIOD   3
 UBDSV1 SAVING "FLOW RIGHT FACE " ON UNIT  53 AT TIME STEP 42, STRESS PERIOD   3
 UBDSV1 SAVING "FLOW FRONT FACE " ON UNIT  53 AT TIME STEP 42, STRESS PERIOD   3
 UBDSV1 SAVING "FLOW LOWER FACE " ON UNIT  53 AT TIME STEP 42, STRESS PERIOD   3

 SAVING SATURATED THICKNESS AND FLOW TERMS ON UNIT   54 FOR MT3DMS
 BY THE LINK-MT3DMS PACKAGE V7 AT TIME STEP   42, STRESS PERIOD    3

1
              HEAD IN LAYER   1 AT END OF TIME STEP  42 IN STRESS PERIOD    3
  ---------------------------------------------------------------------------

            1           2           3           4           5           6           7           8           9          10
 ........................................................................................................................
   1    9.998       8.952       7.893       6.820       5.731       4.624       3.497       2.351       1.186      1.5473E-03
   2    9.998       8.954       7.897       6.826       5.739       4.633       3.505       2.357       1.189      1.5515E-03
   3    9.998       8.958       7.905       6.839       5.757       4.654       3.523       2.369       1.195      1.5596E-03
   4    9.998       8.963       7.915       6.857       5.785       4.690       3.551       2.386       1.204      1.5707E-03
   5    9.998       8.967       7.925       6.877       5.824       4.759       3.591       2.406       1.212      1.5822E-03
   6    9.998       8.969       7.931       6.891       5.868       4.940       3.635       2.420       1.217      1.5888E-03
   7    9.998       8.968       7.927       6.880       5.828       4.763       3.594       2.409       1.213      1.5840E-03
   8    9.998       8.965       7.919       6.863       5.792       4.698       3.558       2.391       1.206      1.5745E-03
   9    9.998       8.962       7.912       6.849       5.769       4.667       3.534       2.377       1.200      1.5660E-03
  10    9.998       8.960       7.908       6.841       5.758       4.653       3.523       2.370       1.196      1.5611E-03
1
              HEAD IN LAYER   2 AT END OF TIME STEP  42 IN STRESS PERIOD    3
  ---------------------------------------------------------------------------

            1           2           3           4           5           6           7           8           9          10
 ........................................................................................................................
   1    9.998       8.951       7.891       6.818       5.729       4.622       3.495       2.349       1.184      2.5436E-03
   2    9.998       8.953       7.895       6.824       5.738       4.631       3.503       2.355       1.187      2.5501E-03
   3    9.998       8.956       7.903       6.837       5.755       4.652       3.521       2.367       1.193      2.5628E-03
   4    9.998       8.961       7.913       6.855       5.783       4.688       3.549       2.384       1.201      2.5803E-03
   5    9.998       8.965       7.923       6.875       5.822       4.756       3.588       2.404       1.210      2.5983E-03
   6    9.998       8.967       7.929       6.889       5.865       4.961       3.632       2.418       1.215      2.6085E-03
   7    9.998       8.966       7.925       6.878       5.825       4.759       3.591       2.406       1.211      2.6011E-03
   8    9.998       8.963       7.917       6.861       5.790       4.695       3.555       2.389       1.204      2.5862E-03
   9    9.998       8.960       7.910       6.847       5.767       4.664       3.532       2.375       1.198      2.5728E-03
  10    9.998       8.958       7.906       6.840       5.756       4.651       3.521       2.368       1.194      2.5653E-03
1
              HEAD IN LAYER   3 AT END OF TIME STEP  42 IN STRESS PERIOD    3
  ---------------------------------------------------------------------------

            1           2           3           4           5           6           7           8           9          10
 ........................................................................................................................
   1    9.998       8.949       7.890       6.817       5.728       4.620       3.493       2.347       1.183      2.5937E-03
   2    9.998       8.951       7.894       6.823       5.736       4.630       3.502       2.353       1.186      2.6003E-03
   3    9.998       8.955       7.901       6.835       5.753       4.650       3.519       2.365       1.191      2.6131E-03
   4    9.998       8.959       7.912       6.853       5.781       4.685       3.546       2.382       1.199      2.6307E-03
   5    9.998       8.964       7.922       6.873       5.819       4.750       3.585       2.401       1.208      2.6488E-03
   6    9.998       8.966       7.927       6.887       5.859       4.893       3.626       2.415       1.212      2.6591E-03
   7    9.998       8.965       7.924       6.876       5.823       4.754       3.588       2.404       1.209      2.6516E-03
   8    9.998       8.962       7.916       6.859       5.788       4.693       3.553       2.387       1.202      2.6367E-03
   9    9.998       8.959       7.909       6.846       5.766       4.663       3.530       2.373       1.196      2.6233E-03
  10    9.998       8.957       7.904       6.838       5.755       4.649       3.519       2.366       1.193      2.6157E-03
1
              HEAD IN LAYER   4 AT END OF TIME STEP  42 IN STRESS PERIOD    3
  ---------------------------------------------------------------------------

            1           2           3           4           5           6           7           8           9          10
 ........................................................................................................................
   1    9.998       8.949       7.889       6.816       5.727       4.619       3.492       2.346       1.181      2.5935E-03
   2    9.998       8.950       7.893       6.822       5.735       4.629       3.501       2.352       1.184      2.6001E-03
   3    9.998       8.954       7.900       6.834       5.752       4.649       3.518       2.363       1.190      2.6128E-03
   4    9.998       8.959       7.911       6.852       5.780       4.684       3.545       2.380       1.198      2.6302E-03
   5    9.998       8.963       7.921       6.872       5.817       4.745       3.583       2.400       1.206      2.6482E-03
   6    9.998       8.965       7.926       6.886       5.855       4.853       3.621       2.413       1.211      2.6584E-03
   7    9.998       8.964       7.923       6.875       5.821       4.749       3.586       2.402       1.208      2.6510E-03
   8    9.998       8.961       7.915       6.858       5.787       4.691       3.552       2.385       1.201      2.6362E-03
   9    9.998       8.958       7.908       6.845       5.764       4.661       3.529       2.372       1.195      2.6229E-03
  10    9.998       8.956       7.903       6.837       5.754       4.648       3.518       2.365       1.191      2.6154E-03
1
              HEAD IN LAYER   5 AT END OF TIME STEP  42 IN STRESS PERIOD    3
  ---------------------------------------------------------------------------

            1           2           3           4           5           6           7           8           9          10
 ........................................................................................................................
   1    9.998       8.948       7.888       6.815       5.726       4.619       3.492       2.345       1.181      2.5924E-03
   2    9.998       8.950       7.892       6.821       5.734       4.628       3.500       2.351       1.184      2.5989E-03
   3    9.998       8.954       7.900       6.834       5.752       4.648       3.517       2.363       1.190      2.6116E-03
   4    9.998       8.958       7.910       6.852       5.779       4.683       3.544       2.380       1.198      2.6289E-03
   5    9.998       8.962       7.920       6.872       5.816       4.743       3.582       2.399       1.206      2.6469E-03
   6    9.998       8.965       7.926       6.885       5.852       4.835       3.618       2.412       1.210      2.6571E-03
   7    9.998       8.963       7.922       6.874       5.820       4.746       3.585       2.401       1.207      2.6497E-03
   8    9.998       8.960       7.914       6.858       5.786       4.690       3.551       2.385       1.200      2.6350E-03
   9    9.998       8.957       7.907       6.844       5.764       4.661       3.528       2.371       1.194      2.6217E-03
  10    9.998       8.955       7.903       6.837       5.753       4.648       3.517       2.364       1.191      2.6143E-03

 HEAD WILL BE SAVED ON UNIT   51 AT END OF TIME STEP   42, STRESS PERIOD    3

 DRAWDOWN WILL BE SAVED ON UNIT   52 AT END OF TIME STEP   42, STRESS PERIOD    3
1
  VOLUMETRIC BUDGET FOR ENTIRE MODEL AT END OF TIME STEP   42, STRESS PERIOD   3
  ------------------------------------------------------------------------------

     CUMULATIVE VOLUMES      L**3       RATES FOR THIS TIME STEP      L**3/T
     ------------------                 ------------------------

           IN:                                      IN:
           ---                                      ---
             STORAGE =         636.5700               STORAGE =           7.6141
       CONSTANT HEAD =           0.0000         CONSTANT HEAD =           0.0000
               WELLS =       12520.0000                 WELLS =          60.0000
     HEAD DEP BOUNDS =      164403.1250       HEAD DEP BOUNDS =        1137.2905

            TOTAL IN =      177559.6875              TOTAL IN =        1204.9045

          OUT:                                     OUT:
          ----                                     ----
             STORAGE =        7435.8950               STORAGE =           2.3245
       CONSTANT HEAD =           0.0000         CONSTANT HEAD =           0.0000
               WELLS =           0.0000                 WELLS =           0.0000
     HEAD DEP BOUNDS =      170119.5312       HEAD DEP BOUNDS =        1202.5314

           TOTAL OUT =      177555.4219             TOTAL OUT =        1204.8558

            IN - OUT =           4.2656              IN - OUT =       4.8706E-02

 PERCENT DISCREPANCY =           0.00     PERCENT DISCREPANCY =           0.00






         TIME SUMMARY AT END OF TIME STEP   42 IN STRESS PERIOD    3
                    SECONDS     MINUTES      HOURS       DAYS        YEARS
                    -----------------------------------------------------------
   TIME STEP LENGTH  86400.      1440.0      24.000      1.0000     2.73785E-03
 STRESS PERIOD TIME 3.62880E+06  60480.      1008.0      42.000     0.11499    
         TOTAL TIME 1.23552E+07 2.05920E+05  3432.0      143.00     0.39151    
1
 
 SOLVING FOR HEAD 

 OUTPUT CONTROL FOR STRESS PERIOD    3   TIME STEP   43
    SAVE HEAD FOR ALL LAYERS
    SAVE DRAWDOWN FOR ALL LAYERS
    SAVE BUDGET
    PRINT HEAD FOR ALL LAYERS
    PRINT BUDGET
 UBDSV1 SAVING "         STORAGE" ON UNIT  53 AT TIME STEP 43, STRESS PERIOD   3
 UBDSV2 SAVING "   CONSTANT HEAD" ON UNIT  53 AT TIME STEP 43, STRESS PERIOD   3
 UBDSV1 SAVING "FLOW RIGHT FACE " ON UNIT  53 AT TIME STEP 43, STRESS PERIOD   3
 UBDSV1 SAVING "FLOW FRONT FACE " ON UNIT  53 AT TIME STEP 43, STRESS PERIOD   3
 UBDSV1 SAVING "FLOW LOWER FACE " ON UNIT  53 AT TIME STEP 43, STRESS PERIOD   3

 SAVING SATURATED THICKNESS AND FLOW TERMS ON UNIT   54 FOR MT3DMS
 BY THE LINK-MT3DMS PACKAGE V7 AT TIME STEP   43, STRESS PERIOD    3

1
              HEAD IN LAYER   1 AT END OF TIME STEP  43 IN STRESS PERIOD    3
  ---------------------------------------------------------------------------

            1           2           3           4           5           6           7           8           9          10
 ........................................................................................................................
   1    9.998       8.952       7.893       6.820       5.731       4.624       3.497       2.351       1.186      1.5473E-03
   2    9.998       8.954       7.897       6.826       5.739       4.633       3.505       2.357       1.189      1.5515E-03
   3    9.998       8.958       7.905       6.839       5.757       4.654       3.523       2.369       1.195      1.5596E-03
   4    9.998       8.963       7.915       6.857       5.785       4.690       3.551       2.386       1.203      1.5706E-03
   5    9.998       8.967       7.925       6.877       5.824       4.759       3.590       2.406       1.212      1.5821E-03
   6    9.998       8.969       7.931       6.891       5.867       4.940       3.635       2.420       1.217      1.5886E-03
   7    9.998       8.968       7.927       6.880       5.827       4.762       3.594       2.408       1.213      1.5839E-03
   8    9.998       8.965       7.919       6.863       5.792       4.697       3.558       2.391       1.206      1.5744E-03
   9    9.998       8.962       7.912       6.849       5.769       4.666       3.534       2.377       1.200      1.5659E-03
  10    9.998       8.960       7.908       6.842       5.758       4.653       3.523       2.370       1.196      1.5612E-03
1
              HEAD IN LAYER   2 AT END OF TIME STEP  43 IN STRESS PERIOD    3
  ---------------------------------------------------------------------------

            1           2           3           4           5           6           7           8           9          10
 ........................................................................................................................
   1    9.998       8.951       7.891       6.818       5.729       4.622       3.495       2.349       1.184      2.5437E-03
   2    9.998       8.953       7.895       6.824       5.738       4.631       3.503       2.355       1.187      2.5502E-03
   3    9.998       8.956       7.903       6.837       5.755       4.652       3.521       2.366       1.193      2.5628E-03
   4    9.998       8.961       7.913       6.855       5.783       4.687       3.548       2.384       1.201      2.5801E-03
   5    9.998       8.965       7.923       6.875       5.821       4.755       3.587       2.403       1.210      2.5981E-03
   6    9.998       8.967       7.929       6.889       5.864       4.961       3.631       2.417       1.214      2.6083E-03
   7    9.998       8.966       7.925       6.878       5.825       4.759       3.591       2.406       1.211      2.6008E-03
   8    9.998       8.963       7.917       6.861       5.790       4.695       3.555       2.389       1.204      2.5861E-03
   9    9.998       8.960       7.910       6.847       5.767       4.664       3.532       2.375       1.198      2.5728E-03
  10    9.998       8.958       7.906       6.840       5.756       4.651       3.521       2.368       1.194      2.5653E-03
1
              HEAD IN LAYER   3 AT END OF TIME STEP  43 IN STRESS PERIOD    3
  ---------------------------------------------------------------------------

            1           2           3           4           5           6           7           8           9          10
 ........................................................................................................................
   1    9.998       8.949       7.890       6.817       5.728       4.621       3.493       2.347       1.183      2.5938E-03
   2    9.998       8.951       7.894       6.823       5.736       4.630       3.502       2.353       1.186      2.6004E-03
   3    9.998       8.955       7.901       6.835       5.753       4.650       3.519       2.365       1.191      2.6131E-03
   4    9.998       8.959       7.912       6.853       5.781       4.685       3.546       2.382       1.199      2.6305E-03
   5    9.998       8.964       7.922       6.873       5.819       4.750       3.585       2.401       1.208      2.6486E-03
   6    9.998       8.966       7.927       6.887       5.859       4.893       3.625       2.415       1.212      2.6589E-03
   7    9.998       8.965       7.924       6.876       5.822       4.753       3.588       2.404       1.209      2.6514E-03
   8    9.998       8.962       7.916       6.859       5.788       4.693       3.553       2.387       1.202      2.6366E-03
   9    9.998       8.959       7.909       6.846       5.766       4.663       3.530       2.373       1.196      2.6232E-03
  10    9.998       8.957       7.904       6.838       5.755       4.649       3.519       2.366       1.193      2.6158E-03
1
              HEAD IN LAYER   4 AT END OF TIME STEP  43 IN STRESS PERIOD    3
  ---------------------------------------------------------------------------

            1           2           3           4           5           6           7           8           9          10
 ........................................................................................................................
   1    9.998       8.949       7.889       6.816       5.727       4.619       3.492       2.346       1.182      2.5936E-03
   2    9.998       8.950       7.893       6.822       5.735       4.629       3.501       2.352       1.184      2.6001E-03
   3    9.998       8.954       7.900       6.834       5.752       4.649       3.518       2.363       1.190      2.6128E-03
   4    9.998       8.959       7.911       6.852       5.780       4.684       3.545       2.380       1.198      2.6301E-03
   5    9.998       8.963       7.921       6.872       5.817       4.745       3.583       2.400       1.206      2.6480E-03
   6    9.998       8.965       7.926       6.885       5.854       4.853       3.620       2.413       1.211      2.6582E-03
   7    9.998       8.964       7.923       6.875       5.821       4.749       3.586       2.402       1.208      2.6508E-03
   8    9.998       8.961       7.915       6.858       5.787       4.691       3.552       2.385       1.201      2.6361E-03
   9    9.998       8.958       7.908       6.845       5.764       4.661       3.529       2.372       1.195      2.6229E-03
  10    9.998       8.956       7.903       6.837       5.754       4.648       3.518       2.365       1.191      2.6155E-03
1
              HEAD IN LAYER   5 AT END OF TIME STEP  43 IN STRESS PERIOD    3
  ---------------------------------------------------------------------------

            1           2           3           4           5           6           7           8           9          10
 ........................................................................................................................
   1    9.998       8.948       7.888       6.815       5.726       4.619       3.492       2.345       1.181      2.5925E-03
   2    9.998       8.950       7.892       6.822       5.735       4.628       3.500       2.351       1.184      2.5990E-03
   3    9.998       8.954       7.900       6.834       5.752       4.648       3.517       2.363       1.190      2.6116E-03
   4    9.998       8.958       7.910       6.851       5.779       4.683       3.544       2.379       1.198      2.6288E-03
   5    9.998       8.962       7.920       6.871       5.816       4.742       3.581       2.399       1.206      2.6467E-03
   6    9.998       8.965       7.926       6.885       5.852       4.835       3.617       2.412       1.210      2.6568E-03
   7    9.998       8.963       7.922       6.874       5.820       4.746       3.585       2.401       1.207      2.6495E-03
   8    9.998       8.960       7.914       6.858       5.786       4.690       3.551       2.385       1.200      2.6349E-03
   9    9.998       8.957       7.907       6.844       5.764       4.661       3.528       2.371       1.194      2.6217E-03
  10    9.998       8.955       7.903       6.837       5.753       4.648       3.517       2.364       1.191      2.6143E-03

 HEAD WILL BE SAVED ON UNIT   51 AT END OF TIME STEP   43, STRESS PERIOD    3

 DRAWDOWN WILL BE SAVED ON UNIT   52 AT END OF TIME STEP   43, STRESS PERIOD    3
1
  VOLUMETRIC BUDGET FOR ENTIRE MODEL AT END OF TIME STEP   43, STRESS PERIOD   3
  ------------------------------------------------------------------------------

     CUMULATIVE VOLUMES      L**3       RATES FOR THIS TIME STEP      L**3/T
     ------------------                 ------------------------

           IN:                                      IN:
           ---                                      ---
             STORAGE =         644.0075               STORAGE =           7.4375
       CONSTANT HEAD =           0.0000         CONSTANT HEAD =           0.0000
               WELLS =       12580.0000                 WELLS =          60.0000
     HEAD DEP BOUNDS =      165540.4062       HEAD DEP BOUNDS =        1137.2834

            TOTAL IN =      178764.4062              TOTAL IN =        1204.7209

          OUT:                                     OUT:
          ----                                     ----
             STORAGE =        7438.0684               STORAGE =           2.1735
       CONSTANT HEAD =           0.0000         CONSTANT HEAD =           0.0000
               WELLS =           0.0000                 WELLS =           0.0000
     HEAD DEP BOUNDS =      171322.0312       HEAD DEP BOUNDS =        1202.4949

           TOTAL OUT =      178760.0938             TOTAL OUT =        1204.6683

            IN - OUT =           4.3125              IN - OUT =       5.2612E-02

 PERCENT DISCREPANCY =           0.00     PERCENT DISCREPANCY =           0.00






         TIME SUMMARY AT END OF TIME STEP   43 IN STRESS PERIOD    3
                    SECONDS     MINUTES      HOURS       DAYS        YEARS
                    -----------------------------------------------------------
   TIME STEP LENGTH  86400.      1440.0      24.000      1.0000     2.73785E-03
 STRESS PERIOD TIME 3.71520E+06  61920.      1032.0      43.000     0.11773    
         TOTAL TIME 1.24416E+07 2.07360E+05  3456.0      144.00     0.39425    
1
 
 SOLVING FOR HEAD 

 OUTPUT CONTROL FOR STRESS PERIOD    3   TIME STEP   44
    SAVE HEAD FOR ALL LAYERS
    SAVE DRAWDOWN FOR ALL LAYERS
    SAVE BUDGET
    PRINT HEAD FOR ALL LAYERS
    PRINT BUDGET
 UBDSV1 SAVING "         STORAGE" ON UNIT  53 AT TIME STEP 44, STRESS PERIOD   3
 UBDSV2 SAVING "   CONSTANT HEAD" ON UNIT  53 AT TIME STEP 44, STRESS PERIOD   3
 UBDSV1 SAVING "FLOW RIGHT FACE " ON UNIT  53 AT TIME STEP 44, STRESS PERIOD   3
 UBDSV1 SAVING "FLOW FRONT FACE " ON UNIT  53 AT TIME STEP 44, STRESS PERIOD   3
 UBDSV1 SAVING "FLOW LOWER FACE " ON UNIT  53 AT TIME STEP 44, STRESS PERIOD   3

 SAVING SATURATED THICKNESS AND FLOW TERMS ON UNIT   54 FOR MT3DMS
 BY THE LINK-MT3DMS PACKAGE V7 AT TIME STEP   44, STRESS PERIOD    3

1
              HEAD IN LAYER   1 AT END OF TIME STEP  44 IN STRESS PERIOD    3
  ---------------------------------------------------------------------------

            1           2           3           4           5           6           7           8           9          10
 ........................................................................................................................
   1    9.998       8.952       7.893       6.820       5.731       4.624       3.497       2.351       1.186      1.5474E-03
   2    9.998       8.954       7.897       6.826       5.740       4.633       3.505       2.357       1.189      1.5516E-03
   3    9.998       8.958       7.905       6.839       5.757       4.654       3.523       2.369       1.195      1.5596E-03
   4    9.998       8.962       7.915       6.857       5.785       4.690       3.551       2.386       1.203      1.5705E-03
   5    9.998       8.967       7.925       6.877       5.824       4.759       3.590       2.406       1.212      1.5820E-03
   6    9.998       8.969       7.931       6.891       5.867       4.940       3.635       2.420       1.217      1.5885E-03
   7    9.998       8.968       7.927       6.880       5.827       4.762       3.593       2.408       1.213      1.5837E-03
   8    9.998       8.965       7.919       6.863       5.792       4.697       3.557       2.391       1.206      1.5743E-03
   9    9.998       8.962       7.912       6.849       5.769       4.666       3.534       2.377       1.200      1.5659E-03
  10    9.998       8.960       7.908       6.842       5.758       4.653       3.523       2.370       1.196      1.5612E-03
1
              HEAD IN LAYER   2 AT END OF TIME STEP  44 IN STRESS PERIOD    3
  ---------------------------------------------------------------------------

            1           2           3           4           5           6           7           8           9          10
 ........................................................................................................................
   1    9.998       8.951       7.891       6.818       5.729       4.622       3.495       2.349       1.184      2.5438E-03
   2    9.998       8.953       7.895       6.825       5.738       4.632       3.504       2.355       1.187      2.5502E-03
   3    9.998       8.956       7.903       6.837       5.755       4.652       3.521       2.366       1.193      2.5628E-03
   4    9.998       8.961       7.913       6.855       5.783       4.687       3.548       2.384       1.201      2.5800E-03
   5    9.998       8.965       7.923       6.875       5.821       4.755       3.587       2.403       1.210      2.5978E-03
   6    9.998       8.967       7.929       6.889       5.864       4.961       3.631       2.417       1.214      2.6080E-03
   7    9.998       8.966       7.925       6.878       5.825       4.759       3.590       2.406       1.211      2.6006E-03
   8    9.998       8.963       7.917       6.861       5.790       4.695       3.555       2.389       1.204      2.5860E-03
   9    9.998       8.960       7.910       6.847       5.767       4.664       3.532       2.375       1.198      2.5728E-03
  10    9.998       8.958       7.906       6.840       5.756       4.651       3.521       2.368       1.194      2.5654E-03
1
              HEAD IN LAYER   3 AT END OF TIME STEP  44 IN STRESS PERIOD    3
  ---------------------------------------------------------------------------

            1           2           3           4           5           6           7           8           9          10
 ........................................................................................................................
   1    9.998       8.949       7.890       6.817       5.728       4.621       3.494       2.347       1.183      2.5939E-03
   2    9.998       8.951       7.894       6.823       5.736       4.630       3.502       2.353       1.186      2.6004E-03
   3    9.998       8.955       7.901       6.835       5.753       4.650       3.519       2.365       1.191      2.6131E-03
   4    9.998       8.959       7.912       6.853       5.781       4.685       3.546       2.381       1.199      2.6304E-03
   5    9.998       8.964       7.922       6.873       5.819       4.750       3.584       2.401       1.208      2.6484E-03
   6    9.998       8.966       7.927       6.887       5.859       4.892       3.625       2.414       1.212      2.6586E-03
   7    9.998       8.965       7.924       6.876       5.822       4.753       3.588       2.403       1.209      2.6512E-03
   8    9.998       8.962       7.916       6.859       5.788       4.693       3.553       2.387       1.202      2.6365E-03
   9    9.998       8.959       7.909       6.846       5.766       4.663       3.530       2.373       1.196      2.6232E-03
  10    9.998       8.957       7.904       6.838       5.755       4.649       3.519       2.366       1.193      2.6158E-03
1
              HEAD IN LAYER   4 AT END OF TIME STEP  44 IN STRESS PERIOD    3
  ---------------------------------------------------------------------------

            1           2           3           4           5           6           7           8           9          10
 ........................................................................................................................
   1    9.998       8.949       7.889       6.816       5.727       4.620       3.492       2.346       1.182      2.5937E-03
   2    9.998       8.951       7.893       6.822       5.735       4.629       3.501       2.352       1.185      2.6002E-03
   3    9.998       8.954       7.900       6.834       5.752       4.649       3.518       2.363       1.190      2.6127E-03
   4    9.998       8.959       7.911       6.852       5.779       4.683       3.545       2.380       1.198      2.6299E-03
   5    9.998       8.963       7.921       6.872       5.817       4.745       3.582       2.399       1.206      2.6478E-03
   6    9.998       8.965       7.926       6.885       5.854       4.853       3.620       2.413       1.211      2.6579E-03
   7    9.998       8.964       7.923       6.875       5.820       4.748       3.585       2.402       1.208      2.6506E-03
   8    9.998       8.961       7.915       6.858       5.787       4.691       3.551       2.385       1.201      2.6360E-03
   9    9.998       8.958       7.908       6.845       5.764       4.661       3.529       2.372       1.195      2.6228E-03
  10    9.998       8.956       7.904       6.837       5.754       4.648       3.518       2.365       1.191      2.6155E-03
1
              HEAD IN LAYER   5 AT END OF TIME STEP  44 IN STRESS PERIOD    3
  ---------------------------------------------------------------------------

            1           2           3           4           5           6           7           8           9          10
 ........................................................................................................................
   1    9.998       8.948       7.888       6.815       5.726       4.619       3.492       2.345       1.181      2.5926E-03
   2    9.998       8.950       7.892       6.822       5.735       4.628       3.500       2.351       1.184      2.5990E-03
   3    9.998       8.954       7.900       6.834       5.752       4.648       3.517       2.363       1.190      2.6115E-03
   4    9.998       8.958       7.910       6.851       5.779       4.683       3.544       2.379       1.197      2.6287E-03
   5    9.998       8.962       7.920       6.871       5.816       4.742       3.581       2.399       1.206      2.6465E-03
   6    9.998       8.965       7.926       6.885       5.852       4.834       3.617       2.412       1.210      2.6566E-03
   7    9.998       8.963       7.922       6.874       5.819       4.746       3.584       2.401       1.207      2.6493E-03
   8    9.998       8.960       7.914       6.858       5.786       4.690       3.551       2.384       1.200      2.6347E-03
   9    9.998       8.957       7.907       6.844       5.764       4.661       3.528       2.371       1.194      2.6217E-03
  10    9.998       8.956       7.903       6.837       5.753       4.648       3.517       2.364       1.191      2.6143E-03

 HEAD WILL BE SAVED ON UNIT   51 AT END OF TIME STEP   44, STRESS PERIOD    3

 DRAWDOWN WILL BE SAVED ON UNIT   52 AT END OF TIME STEP   44, STRESS PERIOD    3
1
  VOLUMETRIC BUDGET FOR ENTIRE MODEL AT END OF TIME STEP   44, STRESS PERIOD   3
  ------------------------------------------------------------------------------

     CUMULATIVE VOLUMES      L**3       RATES FOR THIS TIME STEP      L**3/T
     ------------------                 ------------------------

           IN:                                      IN:
           ---                                      ---
             STORAGE =         651.2720               STORAGE =           7.2645
       CONSTANT HEAD =           0.0000         CONSTANT HEAD =           0.0000
               WELLS =       12640.0000                 WELLS =          60.0000
     HEAD DEP BOUNDS =      166677.6875       HEAD DEP BOUNDS =        1137.2782

            TOTAL IN =      179968.9531              TOTAL IN =        1204.5426

          OUT:                                     OUT:
          ----                                     ----
             STORAGE =        7440.1025               STORAGE =           2.0341
       CONSTANT HEAD =           0.0000         CONSTANT HEAD =           0.0000
               WELLS =           0.0000                 WELLS =           0.0000
     HEAD DEP BOUNDS =      172524.4844       HEAD DEP BOUNDS =        1202.4581

           TOTAL OUT =      179964.5938             TOTAL OUT =        1204.4922

            IN - OUT =           4.3594              IN - OUT =       5.0415E-02

 PERCENT DISCREPANCY =           0.00     PERCENT DISCREPANCY =           0.00






         TIME SUMMARY AT END OF TIME STEP   44 IN STRESS PERIOD    3
                    SECONDS     MINUTES      HOURS       DAYS        YEARS
                    -----------------------------------------------------------
   TIME STEP LENGTH  86400.      1440.0      24.000      1.0000     2.73785E-03
 STRESS PERIOD TIME 3.80160E+06  63360.      1056.0      44.000     0.12047    
         TOTAL TIME 1.25280E+07 2.08800E+05  3480.0      145.00     0.39699    
1
 
 SOLVING FOR HEAD 

 OUTPUT CONTROL FOR STRESS PERIOD    3   TIME STEP   45
    SAVE HEAD FOR ALL LAYERS
    SAVE DRAWDOWN FOR ALL LAYERS
    SAVE BUDGET
    PRINT HEAD FOR ALL LAYERS
    PRINT BUDGET
 UBDSV1 SAVING "         STORAGE" ON UNIT  53 AT TIME STEP 45, STRESS PERIOD   3
 UBDSV2 SAVING "   CONSTANT HEAD" ON UNIT  53 AT TIME STEP 45, STRESS PERIOD   3
 UBDSV1 SAVING "FLOW RIGHT FACE " ON UNIT  53 AT TIME STEP 45, STRESS PERIOD   3
 UBDSV1 SAVING "FLOW FRONT FACE " ON UNIT  53 AT TIME STEP 45, STRESS PERIOD   3
 UBDSV1 SAVING "FLOW LOWER FACE " ON UNIT  53 AT TIME STEP 45, STRESS PERIOD   3

 SAVING SATURATED THICKNESS AND FLOW TERMS ON UNIT   54 FOR MT3DMS
 BY THE LINK-MT3DMS PACKAGE V7 AT TIME STEP   45, STRESS PERIOD    3

1
              HEAD IN LAYER   1 AT END OF TIME STEP  45 IN STRESS PERIOD    3
  ---------------------------------------------------------------------------

            1           2           3           4           5           6           7           8           9          10
 ........................................................................................................................
   1    9.998       8.952       7.893       6.820       5.731       4.624       3.497       2.351       1.186      1.5475E-03
   2    9.998       8.954       7.897       6.826       5.740       4.634       3.506       2.357       1.189      1.5516E-03
   3    9.998       8.958       7.905       6.839       5.757       4.654       3.523       2.369       1.195      1.5596E-03
   4    9.998       8.962       7.915       6.857       5.785       4.689       3.550       2.386       1.203      1.5705E-03
   5    9.998       8.967       7.925       6.877       5.823       4.758       3.590       2.406       1.212      1.5818E-03
   6    9.998       8.969       7.931       6.891       5.867       4.939       3.634       2.420       1.217      1.5883E-03
   7    9.998       8.968       7.927       6.880       5.827       4.762       3.593       2.408       1.213      1.5836E-03
   8    9.998       8.965       7.919       6.863       5.792       4.697       3.557       2.391       1.206      1.5743E-03
   9    9.998       8.962       7.912       6.849       5.769       4.666       3.534       2.377       1.200      1.5659E-03
  10    9.998       8.960       7.908       6.842       5.758       4.653       3.523       2.370       1.196      1.5612E-03
1
              HEAD IN LAYER   2 AT END OF TIME STEP  45 IN STRESS PERIOD    3
  ---------------------------------------------------------------------------

            1           2           3           4           5           6           7           8           9          10
 ........................................................................................................................
   1    9.998       8.951       7.891       6.818       5.729       4.622       3.495       2.349       1.184      2.5439E-03
   2    9.998       8.953       7.895       6.825       5.738       4.632       3.504       2.355       1.187      2.5503E-03
   3    9.998       8.956       7.903       6.837       5.755       4.652       3.521       2.366       1.193      2.5628E-03
   4    9.998       8.961       7.913       6.855       5.782       4.687       3.548       2.383       1.201      2.5799E-03
   5    9.998       8.965       7.923       6.875       5.821       4.755       3.587       2.403       1.209      2.5976E-03
   6    9.998       8.967       7.929       6.888       5.864       4.960       3.631       2.417       1.214      2.6078E-03
   7    9.998       8.966       7.925       6.878       5.824       4.758       3.590       2.405       1.211      2.6004E-03
   8    9.998       8.963       7.917       6.861       5.790       4.695       3.555       2.389       1.204      2.5858E-03
   9    9.998       8.960       7.910       6.847       5.767       4.664       3.532       2.375       1.198      2.5727E-03
  10    9.998       8.958       7.906       6.840       5.756       4.651       3.521       2.368       1.194      2.5654E-03
1
              HEAD IN LAYER   3 AT END OF TIME STEP  45 IN STRESS PERIOD    3
  ---------------------------------------------------------------------------

            1           2           3           4           5           6           7           8           9          10
 ........................................................................................................................
   1    9.998       8.949       7.890       6.817       5.728       4.621       3.494       2.347       1.183      2.5940E-03
   2    9.998       8.951       7.894       6.823       5.736       4.630       3.502       2.353       1.186      2.6005E-03
   3    9.998       8.955       7.901       6.835       5.753       4.650       3.519       2.364       1.191      2.6130E-03
   4    9.998       8.959       7.911       6.853       5.781       4.685       3.546       2.381       1.199      2.6303E-03
   5    9.998       8.964       7.922       6.873       5.819       4.749       3.584       2.401       1.207      2.6482E-03
   6    9.998       8.966       7.927       6.887       5.858       4.892       3.625       2.414       1.212      2.6584E-03
   7    9.998       8.965       7.924       6.876       5.822       4.753       3.587       2.403       1.209      2.6510E-03
   8    9.998       8.962       7.916       6.859       5.788       4.692       3.553       2.386       1.202      2.6363E-03
   9    9.998       8.959       7.909       6.846       5.766       4.662       3.530       2.373       1.196      2.6232E-03
  10    9.998       8.957       7.905       6.838       5.755       4.649       3.519       2.366       1.193      2.6158E-03
1
              HEAD IN LAYER   4 AT END OF TIME STEP  45 IN STRESS PERIOD    3
  ---------------------------------------------------------------------------

            1           2           3           4           5           6           7           8           9          10
 ........................................................................................................................
   1    9.998       8.949       7.889       6.816       5.727       4.620       3.493       2.346       1.182      2.5938E-03
   2    9.998       8.951       7.893       6.822       5.735       4.629       3.501       2.352       1.185      2.6002E-03
   3    9.998       8.954       7.900       6.834       5.752       4.649       3.518       2.363       1.190      2.6127E-03
   4    9.998       8.959       7.910       6.852       5.779       4.683       3.544       2.380       1.198      2.6298E-03
   5    9.998       8.963       7.920       6.872       5.817       4.745       3.582       2.399       1.206      2.6476E-03
   6    9.998       8.965       7.926       6.885       5.854       4.852       3.620       2.412       1.211      2.6577E-03
   7    9.998       8.964       7.923       6.875       5.820       4.748       3.585       2.402       1.207      2.6504E-03
   8    9.998       8.961       7.915       6.858       5.787       4.691       3.551       2.385       1.201      2.6359E-03
   9    9.998       8.958       7.908       6.845       5.764       4.661       3.529       2.372       1.195      2.6228E-03
  10    9.998       8.956       7.904       6.837       5.754       4.648       3.518       2.365       1.191      2.6155E-03
1
              HEAD IN LAYER   5 AT END OF TIME STEP  45 IN STRESS PERIOD    3
  ---------------------------------------------------------------------------

            1           2           3           4           5           6           7           8           9          10
 ........................................................................................................................
   1    9.998       8.948       7.889       6.815       5.726       4.619       3.492       2.345       1.181      2.5927E-03
   2    9.998       8.950       7.893       6.822       5.735       4.628       3.500       2.351       1.184      2.5991E-03
   3    9.998       8.954       7.900       6.834       5.752       4.648       3.517       2.363       1.190      2.6115E-03
   4    9.998       8.958       7.910       6.851       5.779       4.682       3.544       2.379       1.197      2.6286E-03
   5    9.998       8.962       7.920       6.871       5.816       4.742       3.581       2.398       1.205      2.6463E-03
   6    9.998       8.964       7.925       6.884       5.851       4.834       3.617       2.411       1.210      2.6563E-03
   7    9.998       8.963       7.922       6.874       5.819       4.745       3.584       2.401       1.207      2.6491E-03
   8    9.998       8.960       7.914       6.857       5.786       4.690       3.550       2.384       1.200      2.6346E-03
   9    9.998       8.957       7.907       6.844       5.764       4.661       3.528       2.371       1.194      2.6216E-03
  10    9.998       8.956       7.903       6.837       5.753       4.648       3.517       2.364       1.191      2.6143E-03

 HEAD WILL BE SAVED ON UNIT   51 AT END OF TIME STEP   45, STRESS PERIOD    3

 DRAWDOWN WILL BE SAVED ON UNIT   52 AT END OF TIME STEP   45, STRESS PERIOD    3
1
  VOLUMETRIC BUDGET FOR ENTIRE MODEL AT END OF TIME STEP   45, STRESS PERIOD   3
  ------------------------------------------------------------------------------

     CUMULATIVE VOLUMES      L**3       RATES FOR THIS TIME STEP      L**3/T
     ------------------                 ------------------------

           IN:                                      IN:
           ---                                      ---
             STORAGE =         658.3705               STORAGE =           7.0985
       CONSTANT HEAD =           0.0000         CONSTANT HEAD =           0.0000
               WELLS =       12700.0000                 WELLS =          60.0000
     HEAD DEP BOUNDS =      167814.9688       HEAD DEP BOUNDS =        1137.2740

            TOTAL IN =      181173.3438              TOTAL IN =        1204.3726

          OUT:                                     OUT:
          ----                                     ----
             STORAGE =        7442.0005               STORAGE =           1.8981
       CONSTANT HEAD =           0.0000         CONSTANT HEAD =           0.0000
               WELLS =           0.0000                 WELLS =           0.0000
     HEAD DEP BOUNDS =      173726.9062       HEAD DEP BOUNDS =        1202.4221

           TOTAL OUT =      181168.9062             TOTAL OUT =        1204.3202

            IN - OUT =           4.4375              IN - OUT =       5.2368E-02

 PERCENT DISCREPANCY =           0.00     PERCENT DISCREPANCY =           0.00






         TIME SUMMARY AT END OF TIME STEP   45 IN STRESS PERIOD    3
                    SECONDS     MINUTES      HOURS       DAYS        YEARS
                    -----------------------------------------------------------
   TIME STEP LENGTH  86400.      1440.0      24.000      1.0000     2.73785E-03
 STRESS PERIOD TIME 3.88800E+06  64800.      1080.0      45.000     0.12320    
         TOTAL TIME 1.26144E+07 2.10240E+05  3504.0      146.00     0.39973    
1
 
 SOLVING FOR HEAD 

 OUTPUT CONTROL FOR STRESS PERIOD    3   TIME STEP   46
    SAVE HEAD FOR ALL LAYERS
    SAVE DRAWDOWN FOR ALL LAYERS
    SAVE BUDGET
    PRINT HEAD FOR ALL LAYERS
    PRINT BUDGET
 UBDSV1 SAVING "         STORAGE" ON UNIT  53 AT TIME STEP 46, STRESS PERIOD   3
 UBDSV2 SAVING "   CONSTANT HEAD" ON UNIT  53 AT TIME STEP 46, STRESS PERIOD   3
 UBDSV1 SAVING "FLOW RIGHT FACE " ON UNIT  53 AT TIME STEP 46, STRESS PERIOD   3
 UBDSV1 SAVING "FLOW FRONT FACE " ON UNIT  53 AT TIME STEP 46, STRESS PERIOD   3
 UBDSV1 SAVING "FLOW LOWER FACE " ON UNIT  53 AT TIME STEP 46, STRESS PERIOD   3

 SAVING SATURATED THICKNESS AND FLOW TERMS ON UNIT   54 FOR MT3DMS
 BY THE LINK-MT3DMS PACKAGE V7 AT TIME STEP   46, STRESS PERIOD    3

1
              HEAD IN LAYER   1 AT END OF TIME STEP  46 IN STRESS PERIOD    3
  ---------------------------------------------------------------------------

            1           2           3           4           5           6           7           8           9          10
 ........................................................................................................................
   1    9.998       8.953       7.893       6.820       5.731       4.624       3.497       2.351       1.186      1.5476E-03
   2    9.998       8.954       7.897       6.827       5.740       4.634       3.506       2.357       1.189      1.5517E-03
   3    9.998       8.958       7.905       6.839       5.757       4.654       3.523       2.369       1.195      1.5596E-03
   4    9.998       8.962       7.915       6.857       5.785       4.689       3.550       2.386       1.203      1.5704E-03
   5    9.998       8.967       7.925       6.877       5.823       4.758       3.589       2.405       1.212      1.5817E-03
   6    9.998       8.969       7.931       6.891       5.866       4.939       3.634       2.419       1.216      1.5882E-03
   7    9.998       8.968       7.927       6.880       5.827       4.761       3.593       2.408       1.213      1.5835E-03
   8    9.998       8.965       7.919       6.863       5.792       4.697       3.557       2.391       1.206      1.5742E-03
   9    9.998       8.962       7.912       6.849       5.769       4.666       3.534       2.377       1.200      1.5659E-03
  10    9.998       8.960       7.908       6.842       5.758       4.653       3.523       2.370       1.197      1.5612E-03
1
              HEAD IN LAYER   2 AT END OF TIME STEP  46 IN STRESS PERIOD    3
  ---------------------------------------------------------------------------

            1           2           3           4           5           6           7           8           9          10
 ........................................................................................................................
   1    9.998       8.951       7.891       6.818       5.730       4.622       3.495       2.349       1.184      2.5440E-03
   2    9.998       8.953       7.895       6.825       5.738       4.632       3.504       2.355       1.187      2.5504E-03
   3    9.998       8.956       7.903       6.837       5.755       4.652       3.521       2.366       1.193      2.5627E-03
   4    9.998       8.961       7.913       6.855       5.782       4.687       3.548       2.383       1.201      2.5797E-03
   5    9.998       8.965       7.923       6.875       5.821       4.755       3.587       2.403       1.209      2.5974E-03
   6    9.998       8.967       7.929       6.888       5.863       4.960       3.630       2.417       1.214      2.6075E-03
   7    9.998       8.966       7.925       6.877       5.824       4.758       3.590       2.405       1.211      2.6002E-03
   8    9.998       8.963       7.917       6.861       5.790       4.694       3.555       2.388       1.204      2.5857E-03
   9    9.998       8.960       7.910       6.847       5.767       4.664       3.532       2.375       1.198      2.5727E-03
  10    9.998       8.958       7.906       6.840       5.756       4.651       3.521       2.368       1.194      2.5654E-03
1
              HEAD IN LAYER   3 AT END OF TIME STEP  46 IN STRESS PERIOD    3
  ---------------------------------------------------------------------------

            1           2           3           4           5           6           7           8           9          10
 ........................................................................................................................
   1    9.998       8.950       7.890       6.817       5.728       4.621       3.494       2.347       1.183      2.5941E-03
   2    9.998       8.951       7.894       6.823       5.736       4.630       3.502       2.353       1.186      2.6005E-03
   3    9.998       8.955       7.901       6.835       5.753       4.650       3.519       2.364       1.191      2.6130E-03
   4    9.998       8.959       7.911       6.853       5.780       4.685       3.546       2.381       1.199      2.6301E-03
   5    9.998       8.964       7.921       6.873       5.818       4.749       3.584       2.401       1.207      2.6480E-03
   6    9.998       8.966       7.927       6.886       5.858       4.892       3.624       2.414       1.212      2.6581E-03
   7    9.998       8.965       7.924       6.876       5.822       4.753       3.587       2.403       1.209      2.6508E-03
   8    9.998       8.962       7.916       6.859       5.788       4.692       3.553       2.386       1.202      2.6362E-03
   9    9.998       8.959       7.909       6.846       5.765       4.662       3.530       2.373       1.196      2.6231E-03
  10    9.998       8.957       7.905       6.838       5.755       4.649       3.519       2.366       1.193      2.6158E-03
1
              HEAD IN LAYER   4 AT END OF TIME STEP  46 IN STRESS PERIOD    3
  ---------------------------------------------------------------------------

            1           2           3           4           5           6           7           8           9          10
 ........................................................................................................................
   1    9.998       8.949       7.889       6.816       5.727       4.620       3.493       2.346       1.182      2.5939E-03
   2    9.998       8.951       7.893       6.822       5.735       4.629       3.501       2.352       1.185      2.6003E-03
   3    9.998       8.954       7.901       6.834       5.752       4.649       3.517       2.363       1.190      2.6127E-03
   4    9.998       8.959       7.910       6.852       5.779       4.683       3.544       2.380       1.198      2.6297E-03
   5    9.998       8.963       7.920       6.872       5.817       4.744       3.582       2.399       1.206      2.6474E-03
   6    9.998       8.965       7.926       6.885       5.854       4.852       3.619       2.412       1.211      2.6575E-03
   7    9.998       8.964       7.922       6.874       5.820       4.748       3.585       2.401       1.207      2.6502E-03
   8    9.998       8.961       7.915       6.858       5.786       4.691       3.551       2.385       1.201      2.6358E-03
   9    9.998       8.958       7.908       6.845       5.764       4.661       3.529       2.372       1.195      2.6228E-03
  10    9.998       8.956       7.904       6.837       5.754       4.648       3.518       2.365       1.191      2.6155E-03
1
              HEAD IN LAYER   5 AT END OF TIME STEP  46 IN STRESS PERIOD    3
  ---------------------------------------------------------------------------

            1           2           3           4           5           6           7           8           9          10
 ........................................................................................................................
   1    9.998       8.948       7.889       6.816       5.727       4.619       3.492       2.345       1.181      2.5928E-03
   2    9.998       8.950       7.893       6.822       5.735       4.628       3.500       2.351       1.184      2.5991E-03
   3    9.998       8.954       7.900       6.834       5.752       4.648       3.517       2.363       1.190      2.6115E-03
   4    9.998       8.958       7.910       6.851       5.779       4.682       3.544       2.379       1.197      2.6284E-03
   5    9.998       8.962       7.920       6.871       5.816       4.742       3.581       2.398       1.205      2.6461E-03
   6    9.998       8.964       7.925       6.884       5.851       4.834       3.617       2.411       1.210      2.6561E-03
   7    9.998       8.963       7.922       6.874       5.819       4.745       3.584       2.401       1.207      2.6489E-03
   8    9.998       8.960       7.914       6.857       5.786       4.690       3.550       2.384       1.200      2.6345E-03
   9    9.998       8.957       7.907       6.844       5.764       4.661       3.528       2.371       1.194      2.6216E-03
  10    9.998       8.956       7.903       6.837       5.753       4.648       3.517       2.364       1.191      2.6143E-03

 HEAD WILL BE SAVED ON UNIT   51 AT END OF TIME STEP   46, STRESS PERIOD    3

 DRAWDOWN WILL BE SAVED ON UNIT   52 AT END OF TIME STEP   46, STRESS PERIOD    3
1
  VOLUMETRIC BUDGET FOR ENTIRE MODEL AT END OF TIME STEP   46, STRESS PERIOD   3
  ------------------------------------------------------------------------------

     CUMULATIVE VOLUMES      L**3       RATES FOR THIS TIME STEP      L**3/T
     ------------------                 ------------------------

           IN:                                      IN:
           ---                                      ---
             STORAGE =         665.3036               STORAGE =           6.9331
       CONSTANT HEAD =           0.0000         CONSTANT HEAD =           0.0000
               WELLS =       12760.0000                 WELLS =          60.0000
     HEAD DEP BOUNDS =      168952.2344       HEAD DEP BOUNDS =        1137.2717

            TOTAL IN =      182377.5312              TOTAL IN =        1204.2048

          OUT:                                     OUT:
          ----                                     ----
             STORAGE =        7443.7700               STORAGE =           1.7695
       CONSTANT HEAD =           0.0000         CONSTANT HEAD =           0.0000
               WELLS =           0.0000                 WELLS =           0.0000
     HEAD DEP BOUNDS =      174929.2969       HEAD DEP BOUNDS =        1202.3851

           TOTAL OUT =      182373.0625             TOTAL OUT =        1204.1545

            IN - OUT =           4.4688              IN - OUT =       5.0293E-02

 PERCENT DISCREPANCY =           0.00     PERCENT DISCREPANCY =           0.00






         TIME SUMMARY AT END OF TIME STEP   46 IN STRESS PERIOD    3
                    SECONDS     MINUTES      HOURS       DAYS        YEARS
                    -----------------------------------------------------------
   TIME STEP LENGTH  86400.      1440.0      24.000      1.0000     2.73785E-03
 STRESS PERIOD TIME 3.97440E+06  66240.      1104.0      46.000     0.12594    
         TOTAL TIME 1.27008E+07 2.11680E+05  3528.0      147.00     0.40246    
1
 
 SOLVING FOR HEAD 

 OUTPUT CONTROL FOR STRESS PERIOD    3   TIME STEP   47
    SAVE HEAD FOR ALL LAYERS
    SAVE DRAWDOWN FOR ALL LAYERS
    SAVE BUDGET
    PRINT HEAD FOR ALL LAYERS
    PRINT BUDGET
 UBDSV1 SAVING "         STORAGE" ON UNIT  53 AT TIME STEP 47, STRESS PERIOD   3
 UBDSV2 SAVING "   CONSTANT HEAD" ON UNIT  53 AT TIME STEP 47, STRESS PERIOD   3
 UBDSV1 SAVING "FLOW RIGHT FACE " ON UNIT  53 AT TIME STEP 47, STRESS PERIOD   3
 UBDSV1 SAVING "FLOW FRONT FACE " ON UNIT  53 AT TIME STEP 47, STRESS PERIOD   3
 UBDSV1 SAVING "FLOW LOWER FACE " ON UNIT  53 AT TIME STEP 47, STRESS PERIOD   3

 SAVING SATURATED THICKNESS AND FLOW TERMS ON UNIT   54 FOR MT3DMS
 BY THE LINK-MT3DMS PACKAGE V7 AT TIME STEP   47, STRESS PERIOD    3

1
              HEAD IN LAYER   1 AT END OF TIME STEP  47 IN STRESS PERIOD    3
  ---------------------------------------------------------------------------

            1           2           3           4           5           6           7           8           9          10
 ........................................................................................................................
   1    9.998       8.953       7.893       6.820       5.731       4.624       3.497       2.351       1.186      1.5476E-03
   2    9.998       8.954       7.897       6.827       5.740       4.634       3.506       2.357       1.189      1.5517E-03
   3    9.998       8.958       7.905       6.839       5.757       4.654       3.523       2.369       1.195      1.5595E-03
   4    9.998       8.962       7.915       6.857       5.784       4.689       3.550       2.386       1.203      1.5703E-03
   5    9.998       8.967       7.925       6.877       5.823       4.758       3.589       2.405       1.212      1.5816E-03
   6    9.998       8.969       7.931       6.890       5.866       4.939       3.634       2.419       1.216      1.5880E-03
   7    9.998       8.968       7.927       6.879       5.826       4.761       3.592       2.408       1.213      1.5833E-03
   8    9.998       8.965       7.919       6.863       5.792       4.697       3.557       2.391       1.206      1.5741E-03
   9    9.998       8.962       7.912       6.849       5.769       4.666       3.534       2.377       1.200      1.5659E-03
  10    9.998       8.960       7.908       6.842       5.758       4.653       3.523       2.370       1.197      1.5612E-03
1
              HEAD IN LAYER   2 AT END OF TIME STEP  47 IN STRESS PERIOD    3
  ---------------------------------------------------------------------------

            1           2           3           4           5           6           7           8           9          10
 ........................................................................................................................
   1    9.998       8.951       7.892       6.819       5.730       4.623       3.496       2.349       1.185      2.5441E-03
   2    9.998       8.953       7.895       6.825       5.738       4.632       3.504       2.355       1.187      2.5504E-03
   3    9.998       8.956       7.903       6.837       5.755       4.652       3.521       2.366       1.193      2.5627E-03
   4    9.998       8.961       7.913       6.854       5.782       4.687       3.548       2.383       1.201      2.5796E-03
   5    9.998       8.965       7.923       6.874       5.820       4.754       3.586       2.403       1.209      2.5972E-03
   6    9.998       8.967       7.928       6.888       5.863       4.960       3.630       2.416       1.214      2.6073E-03
   7    9.998       8.966       7.925       6.877       5.824       4.758       3.590       2.405       1.211      2.6000E-03
   8    9.998       8.963       7.917       6.861       5.789       4.694       3.555       2.388       1.204      2.5856E-03
   9    9.998       8.960       7.910       6.847       5.767       4.664       3.532       2.375       1.198      2.5727E-03
  10    9.998       8.958       7.906       6.840       5.756       4.651       3.521       2.368       1.194      2.5654E-03
1
              HEAD IN LAYER   3 AT END OF TIME STEP  47 IN STRESS PERIOD    3
  ---------------------------------------------------------------------------

            1           2           3           4           5           6           7           8           9          10
 ........................................................................................................................
   1    9.998       8.950       7.890       6.817       5.728       4.621       3.494       2.347       1.183      2.5942E-03
   2    9.998       8.951       7.894       6.823       5.736       4.630       3.502       2.353       1.186      2.6006E-03
   3    9.998       8.955       7.901       6.835       5.753       4.650       3.519       2.364       1.191      2.6130E-03
   4    9.998       8.959       7.911       6.853       5.780       4.684       3.546       2.381       1.199      2.6300E-03
   5    9.998       8.964       7.921       6.873       5.818       4.749       3.584       2.400       1.207      2.6478E-03
   6    9.998       8.966       7.927       6.886       5.858       4.892       3.624       2.414       1.212      2.6579E-03
   7    9.998       8.965       7.923       6.875       5.821       4.752       3.587       2.403       1.209      2.6506E-03
   8    9.998       8.962       7.916       6.859       5.788       4.692       3.552       2.386       1.202      2.6361E-03
   9    9.998       8.959       7.909       6.846       5.765       4.662       3.530       2.373       1.196      2.6231E-03
  10    9.998       8.957       7.905       6.838       5.755       4.649       3.519       2.366       1.193      2.6158E-03
1
              HEAD IN LAYER   4 AT END OF TIME STEP  47 IN STRESS PERIOD    3
  ---------------------------------------------------------------------------

            1           2           3           4           5           6           7           8           9          10
 ........................................................................................................................
   1    9.998       8.949       7.889       6.816       5.727       4.620       3.493       2.346       1.182      2.5940E-03
   2    9.998       8.951       7.893       6.822       5.735       4.629       3.501       2.352       1.185      2.6003E-03
   3    9.998       8.954       7.901       6.834       5.752       4.649       3.517       2.363       1.190      2.6126E-03
   4    9.998       8.959       7.910       6.852       5.779       4.683       3.544       2.380       1.198      2.6296E-03
   5    9.998       8.963       7.920       6.871       5.816       4.744       3.582       2.399       1.206      2.6472E-03
   6    9.998       8.965       7.926       6.885       5.853       4.852       3.619       2.412       1.211      2.6572E-03
   7    9.998       8.964       7.922       6.874       5.820       4.748       3.585       2.401       1.207      2.6500E-03
   8    9.998       8.961       7.915       6.858       5.786       4.690       3.551       2.385       1.201      2.6356E-03
   9    9.998       8.958       7.908       6.845       5.764       4.661       3.529       2.372       1.195      2.6227E-03
  10    9.998       8.956       7.904       6.837       5.754       4.648       3.518       2.365       1.191      2.6155E-03
1
              HEAD IN LAYER   5 AT END OF TIME STEP  47 IN STRESS PERIOD    3
  ---------------------------------------------------------------------------

            1           2           3           4           5           6           7           8           9          10
 ........................................................................................................................
   1    9.998       8.948       7.889       6.816       5.727       4.619       3.492       2.346       1.181      2.5929E-03
   2    9.998       8.950       7.893       6.822       5.735       4.628       3.500       2.351       1.184      2.5992E-03
   3    9.998       8.954       7.900       6.834       5.752       4.648       3.517       2.362       1.190      2.6114E-03
   4    9.998       8.958       7.910       6.851       5.778       4.682       3.543       2.379       1.197      2.6283E-03
   5    9.998       8.962       7.920       6.871       5.815       4.741       3.580       2.398       1.205      2.6459E-03
   6    9.998       8.964       7.925       6.884       5.851       4.833       3.616       2.411       1.210      2.6559E-03
   7    9.998       8.963       7.922       6.874       5.819       4.745       3.584       2.400       1.207      2.6487E-03
   8    9.998       8.960       7.914       6.857       5.786       4.690       3.550       2.384       1.200      2.6344E-03
   9    9.998       8.957       7.907       6.844       5.764       4.660       3.528       2.371       1.194      2.6215E-03
  10    9.998       8.956       7.903       6.837       5.753       4.648       3.517       2.364       1.191      2.6143E-03

 HEAD WILL BE SAVED ON UNIT   51 AT END OF TIME STEP   47, STRESS PERIOD    3

 DRAWDOWN WILL BE SAVED ON UNIT   52 AT END OF TIME STEP   47, STRESS PERIOD    3
1
  VOLUMETRIC BUDGET FOR ENTIRE MODEL AT END OF TIME STEP   47, STRESS PERIOD   3
  ------------------------------------------------------------------------------

     CUMULATIVE VOLUMES      L**3       RATES FOR THIS TIME STEP      L**3/T
     ------------------                 ------------------------

           IN:                                      IN:
           ---                                      ---
             STORAGE =         672.0749               STORAGE =           6.7713
       CONSTANT HEAD =           0.0000         CONSTANT HEAD =           0.0000
               WELLS =       12820.0000                 WELLS =          60.0000
     HEAD DEP BOUNDS =      170089.5000       HEAD DEP BOUNDS =        1137.2632

            TOTAL IN =      183581.5781              TOTAL IN =        1204.0344

          OUT:                                     OUT:
          ----                                     ----
             STORAGE =        7445.4155               STORAGE =           1.6457
       CONSTANT HEAD =           0.0000         CONSTANT HEAD =           0.0000
               WELLS =           0.0000                 WELLS =           0.0000
     HEAD DEP BOUNDS =      176131.6406       HEAD DEP BOUNDS =        1202.3466

           TOTAL OUT =      183577.0625             TOTAL OUT =        1203.9923

            IN - OUT =           4.5156              IN - OUT =       4.2114E-02

 PERCENT DISCREPANCY =           0.00     PERCENT DISCREPANCY =           0.00






         TIME SUMMARY AT END OF TIME STEP   47 IN STRESS PERIOD    3
                    SECONDS     MINUTES      HOURS       DAYS        YEARS
                    -----------------------------------------------------------
   TIME STEP LENGTH  86400.      1440.0      24.000      1.0000     2.73785E-03
 STRESS PERIOD TIME 4.06080E+06  67680.      1128.0      47.000     0.12868    
         TOTAL TIME 1.27872E+07 2.13120E+05  3552.0      148.00     0.40520    
1
 
 SOLVING FOR HEAD 

 OUTPUT CONTROL FOR STRESS PERIOD    3   TIME STEP   48
    SAVE HEAD FOR ALL LAYERS
    SAVE DRAWDOWN FOR ALL LAYERS
    SAVE BUDGET
    PRINT HEAD FOR ALL LAYERS
    PRINT BUDGET
 UBDSV1 SAVING "         STORAGE" ON UNIT  53 AT TIME STEP 48, STRESS PERIOD   3
 UBDSV2 SAVING "   CONSTANT HEAD" ON UNIT  53 AT TIME STEP 48, STRESS PERIOD   3
 UBDSV1 SAVING "FLOW RIGHT FACE " ON UNIT  53 AT TIME STEP 48, STRESS PERIOD   3
 UBDSV1 SAVING "FLOW FRONT FACE " ON UNIT  53 AT TIME STEP 48, STRESS PERIOD   3
 UBDSV1 SAVING "FLOW LOWER FACE " ON UNIT  53 AT TIME STEP 48, STRESS PERIOD   3

 SAVING SATURATED THICKNESS AND FLOW TERMS ON UNIT   54 FOR MT3DMS
 BY THE LINK-MT3DMS PACKAGE V7 AT TIME STEP   48, STRESS PERIOD    3

1
              HEAD IN LAYER   1 AT END OF TIME STEP  48 IN STRESS PERIOD    3
  ---------------------------------------------------------------------------

            1           2           3           4           5           6           7           8           9          10
 ........................................................................................................................
   1    9.998       8.953       7.893       6.820       5.732       4.624       3.498       2.351       1.187      1.5477E-03
   2    9.998       8.955       7.897       6.827       5.740       4.634       3.506       2.357       1.190      1.5517E-03
   3    9.998       8.958       7.905       6.839       5.757       4.654       3.523       2.369       1.195      1.5595E-03
   4    9.998       8.962       7.915       6.856       5.784       4.689       3.550       2.385       1.203      1.5703E-03
   5    9.998       8.967       7.925       6.876       5.823       4.757       3.589       2.405       1.211      1.5814E-03
   6    9.998       8.969       7.930       6.890       5.866       4.938       3.633       2.419       1.216      1.5878E-03
   7    9.998       8.968       7.927       6.879       5.826       4.761       3.592       2.407       1.213      1.5832E-03
   8    9.998       8.965       7.919       6.863       5.792       4.696       3.557       2.391       1.206      1.5740E-03
   9    9.998       8.962       7.912       6.849       5.769       4.666       3.534       2.377       1.200      1.5659E-03
  10    9.998       8.960       7.908       6.842       5.758       4.653       3.523       2.370       1.197      1.5613E-03
1
              HEAD IN LAYER   2 AT END OF TIME STEP  48 IN STRESS PERIOD    3
  ---------------------------------------------------------------------------

            1           2           3           4           5           6           7           8           9          10
 ........................................................................................................................
   1    9.998       8.951       7.892       6.819       5.730       4.623       3.496       2.349       1.185      2.5441E-03
   2    9.998       8.953       7.896       6.825       5.738       4.632       3.504       2.355       1.188      2.5504E-03
   3    9.998       8.956       7.903       6.837       5.755       4.652       3.521       2.366       1.193      2.5627E-03
   4    9.998       8.961       7.913       6.854       5.782       4.687       3.548       2.383       1.201      2.5795E-03
   5    9.998       8.965       7.923       6.874       5.820       4.754       3.586       2.403       1.209      2.5970E-03
   6    9.998       8.967       7.928       6.888       5.863       4.959       3.630       2.416       1.214      2.6070E-03
   7    9.998       8.966       7.925       6.877       5.824       4.758       3.589       2.405       1.210      2.5998E-03
   8    9.998       8.963       7.917       6.861       5.789       4.694       3.554       2.388       1.204      2.5855E-03
   9    9.998       8.960       7.910       6.847       5.767       4.664       3.532       2.375       1.198      2.5726E-03
  10    9.998       8.958       7.906       6.840       5.756       4.651       3.521       2.368       1.194      2.5655E-03
1
              HEAD IN LAYER   3 AT END OF TIME STEP  48 IN STRESS PERIOD    3
  ---------------------------------------------------------------------------

            1           2           3           4           5           6           7           8           9          10
 ........................................................................................................................
   1    9.998       8.950       7.890       6.817       5.728       4.621       3.494       2.347       1.183      2.5943E-03
   2    9.998       8.951       7.894       6.823       5.736       4.630       3.502       2.353       1.186      2.6006E-03
   3    9.998       8.955       7.902       6.835       5.753       4.650       3.519       2.364       1.191      2.6129E-03
   4    9.998       8.959       7.911       6.853       5.780       4.684       3.545       2.381       1.199      2.6299E-03
   5    9.998       8.963       7.921       6.872       5.818       4.748       3.583       2.400       1.207      2.6476E-03
   6    9.998       8.966       7.927       6.886       5.858       4.891       3.624       2.414       1.212      2.6577E-03
   7    9.998       8.965       7.923       6.875       5.821       4.752       3.587       2.403       1.208      2.6504E-03
   8    9.998       8.962       7.916       6.859       5.787       4.692       3.552       2.386       1.202      2.6360E-03
   9    9.998       8.959       7.909       6.846       5.765       4.662       3.530       2.373       1.196      2.6230E-03
  10    9.998       8.957       7.905       6.838       5.755       4.649       3.519       2.366       1.193      2.6158E-03
1
              HEAD IN LAYER   4 AT END OF TIME STEP  48 IN STRESS PERIOD    3
  ---------------------------------------------------------------------------

            1           2           3           4           5           6           7           8           9          10
 ........................................................................................................................
   1    9.998       8.949       7.889       6.816       5.727       4.620       3.493       2.346       1.182      2.5940E-03
   2    9.998       8.951       7.893       6.822       5.735       4.629       3.501       2.352       1.185      2.6003E-03
   3    9.998       8.954       7.901       6.834       5.752       4.648       3.517       2.363       1.190      2.6126E-03
   4    9.998       8.958       7.910       6.852       5.779       4.683       3.544       2.380       1.198      2.6294E-03
   5    9.998       8.963       7.920       6.871       5.816       4.744       3.581       2.399       1.206      2.6470E-03
   6    9.998       8.965       7.926       6.885       5.853       4.851       3.619       2.412       1.210      2.6570E-03
   7    9.998       8.964       7.922       6.874       5.819       4.747       3.584       2.401       1.207      2.6498E-03
   8    9.998       8.961       7.915       6.858       5.786       4.690       3.551       2.385       1.201      2.6355E-03
   9    9.998       8.958       7.908       6.845       5.764       4.661       3.529       2.372       1.195      2.6227E-03
  10    9.998       8.956       7.904       6.837       5.754       4.648       3.518       2.365       1.191      2.6155E-03
1
              HEAD IN LAYER   5 AT END OF TIME STEP  48 IN STRESS PERIOD    3
  ---------------------------------------------------------------------------

            1           2           3           4           5           6           7           8           9          10
 ........................................................................................................................
   1    9.998       8.948       7.889       6.816       5.727       4.619       3.492       2.346       1.181      2.5929E-03
   2    9.998       8.950       7.893       6.822       5.735       4.628       3.500       2.351       1.184      2.5992E-03
   3    9.998       8.954       7.900       6.834       5.752       4.648       3.517       2.362       1.190      2.6114E-03
   4    9.998       8.958       7.910       6.851       5.778       4.682       3.543       2.379       1.197      2.6282E-03
   5    9.998       8.962       7.920       6.871       5.815       4.741       3.580       2.398       1.205      2.6457E-03
   6    9.998       8.964       7.925       6.884       5.851       4.833       3.616       2.411       1.210      2.6557E-03
   7    9.998       8.963       7.922       6.874       5.819       4.745       3.583       2.400       1.207      2.6485E-03
   8    9.998       8.960       7.914       6.857       5.786       4.689       3.550       2.384       1.200      2.6343E-03
   9    9.998       8.957       7.907       6.844       5.764       4.660       3.528       2.371       1.194      2.6215E-03
  10    9.998       8.956       7.903       6.837       5.753       4.648       3.517       2.364       1.191      2.6143E-03

 HEAD WILL BE SAVED ON UNIT   51 AT END OF TIME STEP   48, STRESS PERIOD    3

 DRAWDOWN WILL BE SAVED ON UNIT   52 AT END OF TIME STEP   48, STRESS PERIOD    3
1
  VOLUMETRIC BUDGET FOR ENTIRE MODEL AT END OF TIME STEP   48, STRESS PERIOD   3
  ------------------------------------------------------------------------------

     CUMULATIVE VOLUMES      L**3       RATES FOR THIS TIME STEP      L**3/T
     ------------------                 ------------------------

           IN:                                      IN:
           ---                                      ---
             STORAGE =         678.6919               STORAGE =           6.6170
       CONSTANT HEAD =           0.0000         CONSTANT HEAD =           0.0000
               WELLS =       12880.0000                 WELLS =          60.0000
     HEAD DEP BOUNDS =      171226.7656       HEAD DEP BOUNDS =        1137.2631

            TOTAL IN =      184785.4531              TOTAL IN =        1203.8800

          OUT:                                     OUT:
          ----                                     ----
             STORAGE =        7446.9453               STORAGE =           1.5297
       CONSTANT HEAD =           0.0000         CONSTANT HEAD =           0.0000
               WELLS =           0.0000                 WELLS =           0.0000
     HEAD DEP BOUNDS =      177333.9531       HEAD DEP BOUNDS =        1202.3088

           TOTAL OUT =      184780.9062             TOTAL OUT =        1203.8385

            IN - OUT =           4.5469              IN - OUT =       4.1504E-02

 PERCENT DISCREPANCY =           0.00     PERCENT DISCREPANCY =           0.00






         TIME SUMMARY AT END OF TIME STEP   48 IN STRESS PERIOD    3
                    SECONDS     MINUTES      HOURS       DAYS        YEARS
                    -----------------------------------------------------------
   TIME STEP LENGTH  86400.      1440.0      24.000      1.0000     2.73785E-03
 STRESS PERIOD TIME 4.14720E+06  69120.      1152.0      48.000     0.13142    
         TOTAL TIME 1.28736E+07 2.14560E+05  3576.0      149.00     0.40794    
1
 
 SOLVING FOR HEAD 

 OUTPUT CONTROL FOR STRESS PERIOD    3   TIME STEP   49
    SAVE HEAD FOR ALL LAYERS
    SAVE DRAWDOWN FOR ALL LAYERS
    SAVE BUDGET
    PRINT HEAD FOR ALL LAYERS
    PRINT BUDGET
 UBDSV1 SAVING "         STORAGE" ON UNIT  53 AT TIME STEP 49, STRESS PERIOD   3
 UBDSV2 SAVING "   CONSTANT HEAD" ON UNIT  53 AT TIME STEP 49, STRESS PERIOD   3
 UBDSV1 SAVING "FLOW RIGHT FACE " ON UNIT  53 AT TIME STEP 49, STRESS PERIOD   3
 UBDSV1 SAVING "FLOW FRONT FACE " ON UNIT  53 AT TIME STEP 49, STRESS PERIOD   3
 UBDSV1 SAVING "FLOW LOWER FACE " ON UNIT  53 AT TIME STEP 49, STRESS PERIOD   3

 SAVING SATURATED THICKNESS AND FLOW TERMS ON UNIT   54 FOR MT3DMS
 BY THE LINK-MT3DMS PACKAGE V7 AT TIME STEP   49, STRESS PERIOD    3

1
              HEAD IN LAYER   1 AT END OF TIME STEP  49 IN STRESS PERIOD    3
  ---------------------------------------------------------------------------

            1           2           3           4           5           6           7           8           9          10
 ........................................................................................................................
   1    9.998       8.953       7.893       6.821       5.732       4.625       3.498       2.351       1.187      1.5478E-03
   2    9.998       8.955       7.897       6.827       5.740       4.634       3.506       2.357       1.190      1.5517E-03
   3    9.998       8.958       7.905       6.839       5.757       4.654       3.523       2.368       1.195      1.5595E-03
   4    9.998       8.962       7.915       6.856       5.784       4.689       3.550       2.385       1.203      1.5702E-03
   5    9.998       8.967       7.925       6.876       5.822       4.757       3.589       2.405       1.211      1.5813E-03
   6    9.998       8.969       7.930       6.890       5.866       4.938       3.633       2.419       1.216      1.5877E-03
   7    9.998       8.968       7.927       6.879       5.826       4.761       3.592       2.407       1.213      1.5831E-03
   8    9.998       8.965       7.919       6.862       5.791       4.696       3.557       2.390       1.206      1.5740E-03
   9    9.998       8.962       7.912       6.849       5.769       4.666       3.534       2.377       1.200      1.5658E-03
  10    9.998       8.960       7.908       6.842       5.758       4.653       3.523       2.370       1.197      1.5613E-03
1
              HEAD IN LAYER   2 AT END OF TIME STEP  49 IN STRESS PERIOD    3
  ---------------------------------------------------------------------------

            1           2           3           4           5           6           7           8           9          10
 ........................................................................................................................
   1    9.998       8.951       7.892       6.819       5.730       4.623       3.496       2.349       1.185      2.5442E-03
   2    9.998       8.953       7.896       6.825       5.738       4.632       3.504       2.355       1.188      2.5505E-03
   3    9.998       8.956       7.903       6.837       5.755       4.651       3.520       2.366       1.193      2.5627E-03
   4    9.998       8.961       7.913       6.854       5.782       4.686       3.547       2.383       1.201      2.5794E-03
   5    9.998       8.965       7.923       6.874       5.820       4.754       3.586       2.402       1.209      2.5968E-03
   6    9.998       8.967       7.928       6.888       5.863       4.959       3.629       2.416       1.214      2.6068E-03
   7    9.998       8.966       7.925       6.877       5.823       4.757       3.589       2.405       1.210      2.5996E-03
   8    9.998       8.963       7.917       6.860       5.789       4.694       3.554       2.388       1.204      2.5854E-03
   9    9.998       8.960       7.910       6.847       5.767       4.664       3.532       2.375       1.198      2.5726E-03
  10    9.998       8.958       7.906       6.840       5.756       4.651       3.521       2.368       1.194      2.5655E-03
1
              HEAD IN LAYER   3 AT END OF TIME STEP  49 IN STRESS PERIOD    3
  ---------------------------------------------------------------------------

            1           2           3           4           5           6           7           8           9          10
 ........................................................................................................................
   1    9.998       8.950       7.890       6.817       5.728       4.621       3.494       2.347       1.183      2.5943E-03
   2    9.998       8.952       7.894       6.823       5.736       4.630       3.502       2.353       1.186      2.6006E-03
   3    9.998       8.955       7.902       6.835       5.753       4.650       3.519       2.364       1.191      2.6129E-03
   4    9.998       8.959       7.911       6.853       5.780       4.684       3.545       2.381       1.199      2.6298E-03
   5    9.998       8.963       7.921       6.872       5.818       4.748       3.583       2.400       1.207      2.6474E-03
   6    9.998       8.966       7.927       6.886       5.857       4.891       3.623       2.413       1.212      2.6575E-03
   7    9.998       8.965       7.923       6.875       5.821       4.752       3.586       2.402       1.208      2.6502E-03
   8    9.998       8.962       7.916       6.859       5.787       4.692       3.552       2.386       1.202      2.6359E-03
   9    9.998       8.959       7.909       6.846       5.765       4.662       3.530       2.373       1.196      2.6230E-03
  10    9.998       8.957       7.905       6.838       5.755       4.649       3.519       2.366       1.193      2.6158E-03
1
              HEAD IN LAYER   4 AT END OF TIME STEP  49 IN STRESS PERIOD    3
  ---------------------------------------------------------------------------

            1           2           3           4           5           6           7           8           9          10
 ........................................................................................................................
   1    9.998       8.949       7.889       6.816       5.727       4.620       3.493       2.346       1.182      2.5941E-03
   2    9.998       8.951       7.893       6.822       5.735       4.629       3.501       2.352       1.185      2.6004E-03
   3    9.998       8.954       7.901       6.834       5.752       4.648       3.517       2.363       1.190      2.6126E-03
   4    9.998       8.958       7.910       6.852       5.779       4.683       3.544       2.379       1.198      2.6293E-03
   5    9.998       8.963       7.920       6.871       5.816       4.744       3.581       2.398       1.206      2.6468E-03
   6    9.998       8.965       7.926       6.884       5.853       4.851       3.619       2.412       1.210      2.6568E-03
   7    9.998       8.964       7.922       6.874       5.819       4.747       3.584       2.401       1.207      2.6497E-03
   8    9.998       8.961       7.915       6.858       5.786       4.690       3.551       2.385       1.201      2.6354E-03
   9    9.998       8.958       7.908       6.844       5.764       4.661       3.529       2.372       1.195      2.6226E-03
  10    9.998       8.956       7.904       6.837       5.754       4.648       3.518       2.365       1.191      2.6155E-03
1
              HEAD IN LAYER   5 AT END OF TIME STEP  49 IN STRESS PERIOD    3
  ---------------------------------------------------------------------------

            1           2           3           4           5           6           7           8           9          10
 ........................................................................................................................
   1    9.998       8.948       7.889       6.816       5.727       4.620       3.492       2.346       1.181      2.5930E-03
   2    9.998       8.950       7.893       6.822       5.735       4.628       3.500       2.351       1.184      2.5992E-03
   3    9.998       8.954       7.900       6.834       5.752       4.648       3.517       2.362       1.190      2.6114E-03
   4    9.998       8.958       7.910       6.851       5.778       4.682       3.543       2.379       1.197      2.6281E-03
   5    9.998       8.962       7.920       6.870       5.815       4.741       3.580       2.398       1.205      2.6455E-03
   6    9.998       8.964       7.925       6.884       5.850       4.833       3.616       2.411       1.210      2.6555E-03
   7    9.998       8.963       7.922       6.873       5.818       4.744       3.583       2.400       1.206      2.6483E-03
   8    9.998       8.960       7.914       6.857       5.785       4.689       3.550       2.384       1.200      2.6341E-03
   9    9.998       8.957       7.907       6.844       5.764       4.660       3.528       2.371       1.194      2.6214E-03
  10    9.998       8.956       7.903       6.837       5.753       4.648       3.517       2.364       1.191      2.6143E-03

 HEAD WILL BE SAVED ON UNIT   51 AT END OF TIME STEP   49, STRESS PERIOD    3

 DRAWDOWN WILL BE SAVED ON UNIT   52 AT END OF TIME STEP   49, STRESS PERIOD    3
1
  VOLUMETRIC BUDGET FOR ENTIRE MODEL AT END OF TIME STEP   49, STRESS PERIOD   3
  ------------------------------------------------------------------------------

     CUMULATIVE VOLUMES      L**3       RATES FOR THIS TIME STEP      L**3/T
     ------------------                 ------------------------

           IN:                                      IN:
           ---                                      ---
             STORAGE =         685.1639               STORAGE =           6.4721
       CONSTANT HEAD =           0.0000         CONSTANT HEAD =           0.0000
               WELLS =       12940.0000                 WELLS =          60.0000
     HEAD DEP BOUNDS =      172364.0312       HEAD DEP BOUNDS =        1137.2640

            TOTAL IN =      185989.1875              TOTAL IN =        1203.7361

          OUT:                                     OUT:
          ----                                     ----
             STORAGE =        7448.3633               STORAGE =           1.4178
       CONSTANT HEAD =           0.0000         CONSTANT HEAD =           0.0000
               WELLS =           0.0000                 WELLS =           0.0000
     HEAD DEP BOUNDS =      178536.2188       HEAD DEP BOUNDS =        1202.2722

           TOTAL OUT =      185984.5781             TOTAL OUT =        1203.6901

            IN - OUT =           4.6094              IN - OUT =       4.6021E-02

 PERCENT DISCREPANCY =           0.00     PERCENT DISCREPANCY =           0.00






         TIME SUMMARY AT END OF TIME STEP   49 IN STRESS PERIOD    3
                    SECONDS     MINUTES      HOURS       DAYS        YEARS
                    -----------------------------------------------------------
   TIME STEP LENGTH  86400.      1440.0      24.000      1.0000     2.73785E-03
 STRESS PERIOD TIME 4.23360E+06  70560.      1176.0      49.000     0.13415    
         TOTAL TIME 1.29600E+07 2.16000E+05  3600.0      150.00     0.41068    
1
 
 SOLVING FOR HEAD 

 OUTPUT CONTROL FOR STRESS PERIOD    3   TIME STEP   50
    SAVE HEAD FOR ALL LAYERS
    SAVE DRAWDOWN FOR ALL LAYERS
    SAVE BUDGET
    PRINT HEAD FOR ALL LAYERS
    PRINT BUDGET
 UBDSV1 SAVING "         STORAGE" ON UNIT  53 AT TIME STEP 50, STRESS PERIOD   3
 UBDSV2 SAVING "   CONSTANT HEAD" ON UNIT  53 AT TIME STEP 50, STRESS PERIOD   3
 UBDSV1 SAVING "FLOW RIGHT FACE " ON UNIT  53 AT TIME STEP 50, STRESS PERIOD   3
 UBDSV1 SAVING "FLOW FRONT FACE " ON UNIT  53 AT TIME STEP 50, STRESS PERIOD   3
 UBDSV1 SAVING "FLOW LOWER FACE " ON UNIT  53 AT TIME STEP 50, STRESS PERIOD   3

 SAVING SATURATED THICKNESS AND FLOW TERMS ON UNIT   54 FOR MT3DMS
 BY THE LINK-MT3DMS PACKAGE V7 AT TIME STEP   50, STRESS PERIOD    3

1
              HEAD IN LAYER   1 AT END OF TIME STEP  50 IN STRESS PERIOD    3
  ---------------------------------------------------------------------------

            1           2           3           4           5           6           7           8           9          10
 ........................................................................................................................
   1    9.998       8.953       7.894       6.821       5.732       4.625       3.498       2.351       1.187      1.5478E-03
   2    9.998       8.955       7.897       6.827       5.740       4.634       3.506       2.357       1.190      1.5518E-03
   3    9.998       8.958       7.905       6.839       5.757       4.654       3.523       2.368       1.195      1.5595E-03
   4    9.998       8.962       7.915       6.856       5.784       4.689       3.550       2.385       1.203      1.5700E-03
   5    9.998       8.967       7.925       6.876       5.822       4.757       3.588       2.405       1.211      1.5812E-03
   6    9.998       8.969       7.930       6.890       5.865       4.938       3.633       2.419       1.216      1.5876E-03
   7    9.998       8.968       7.927       6.879       5.826       4.760       3.592       2.407       1.213      1.5829E-03
   8    9.998       8.965       7.919       6.862       5.791       4.696       3.556       2.390       1.206      1.5738E-03
   9    9.998       8.962       7.912       6.849       5.769       4.666       3.534       2.377       1.200      1.5658E-03
  10    9.998       8.960       7.908       6.842       5.758       4.653       3.523       2.370       1.197      1.5613E-03
1
              HEAD IN LAYER   2 AT END OF TIME STEP  50 IN STRESS PERIOD    3
  ---------------------------------------------------------------------------

            1           2           3           4           5           6           7           8           9          10
 ........................................................................................................................
   1    9.998       8.951       7.892       6.819       5.730       4.623       3.496       2.349       1.185      2.5443E-03
   2    9.998       8.953       7.896       6.825       5.738       4.632       3.504       2.355       1.188      2.5505E-03
   3    9.998       8.956       7.903       6.837       5.755       4.651       3.520       2.366       1.193      2.5626E-03
   4    9.998       8.961       7.913       6.854       5.782       4.686       3.547       2.383       1.201      2.5793E-03
   5    9.998       8.965       7.923       6.874       5.820       4.754       3.586       2.402       1.209      2.5966E-03
   6    9.998       8.967       7.928       6.888       5.862       4.959       3.629       2.416       1.214      2.6066E-03
   7    9.998       8.966       7.925       6.877       5.823       4.757       3.589       2.405       1.210      2.5994E-03
   8    9.998       8.963       7.917       6.860       5.789       4.694       3.554       2.388       1.204      2.5852E-03
   9    9.998       8.960       7.910       6.847       5.767       4.664       3.532       2.375       1.198      2.5725E-03
  10    9.998       8.958       7.906       6.840       5.756       4.651       3.521       2.368       1.194      2.5655E-03
1
              HEAD IN LAYER   3 AT END OF TIME STEP  50 IN STRESS PERIOD    3
  ---------------------------------------------------------------------------

            1           2           3           4           5           6           7           8           9          10
 ........................................................................................................................
   1    9.998       8.950       7.890       6.817       5.729       4.621       3.494       2.347       1.183      2.5944E-03
   2    9.998       8.952       7.894       6.823       5.737       4.630       3.502       2.353       1.186      2.6007E-03
   3    9.998       8.955       7.902       6.835       5.753       4.650       3.519       2.364       1.191      2.6129E-03
   4    9.998       8.959       7.911       6.853       5.780       4.684       3.545       2.381       1.199      2.6297E-03
   5    9.998       8.963       7.921       6.872       5.817       4.748       3.583       2.400       1.207      2.6472E-03
   6    9.998       8.966       7.927       6.886       5.857       4.891       3.623       2.413       1.212      2.6573E-03
   7    9.998       8.965       7.923       6.875       5.821       4.752       3.586       2.402       1.208      2.6500E-03
   8    9.998       8.962       7.916       6.859       5.787       4.692       3.552       2.386       1.202      2.6357E-03
   9    9.998       8.959       7.909       6.846       5.765       4.662       3.530       2.373       1.196      2.6230E-03
  10    9.998       8.957       7.905       6.838       5.755       4.649       3.519       2.366       1.193      2.6158E-03
1
              HEAD IN LAYER   4 AT END OF TIME STEP  50 IN STRESS PERIOD    3
  ---------------------------------------------------------------------------

            1           2           3           4           5           6           7           8           9          10
 ........................................................................................................................
   1    9.998       8.949       7.889       6.816       5.727       4.620       3.493       2.346       1.182      2.5942E-03
   2    9.998       8.951       7.893       6.822       5.735       4.629       3.501       2.352       1.185      2.6004E-03
   3    9.998       8.954       7.901       6.834       5.752       4.648       3.517       2.363       1.190      2.6125E-03
   4    9.998       8.958       7.910       6.851       5.779       4.682       3.544       2.379       1.198      2.6292E-03
   5    9.998       8.963       7.920       6.871       5.816       4.743       3.581       2.398       1.206      2.6466E-03
   6    9.998       8.965       7.926       6.884       5.853       4.851       3.618       2.411       1.210      2.6566E-03
   7    9.998       8.964       7.922       6.874       5.819       4.747       3.584       2.401       1.207      2.6495E-03
   8    9.998       8.961       7.915       6.858       5.786       4.690       3.550       2.384       1.201      2.6353E-03
   9    9.998       8.958       7.908       6.844       5.764       4.661       3.529       2.372       1.195      2.6226E-03
  10    9.998       8.956       7.904       6.837       5.754       4.648       3.518       2.365       1.191      2.6155E-03
1
              HEAD IN LAYER   5 AT END OF TIME STEP  50 IN STRESS PERIOD    3
  ---------------------------------------------------------------------------

            1           2           3           4           5           6           7           8           9          10
 ........................................................................................................................
   1    9.998       8.948       7.889       6.816       5.727       4.620       3.492       2.346       1.181      2.5931E-03
   2    9.998       8.950       7.893       6.822       5.735       4.629       3.500       2.351       1.184      2.5993E-03
   3    9.998       8.954       7.900       6.834       5.752       4.648       3.517       2.362       1.190      2.6113E-03
   4    9.998       8.958       7.910       6.851       5.778       4.682       3.543       2.379       1.197      2.6280E-03
   5    9.998       8.962       7.920       6.870       5.815       4.741       3.580       2.398       1.205      2.6453E-03
   6    9.998       8.964       7.925       6.884       5.850       4.833       3.616       2.411       1.210      2.6552E-03
   7    9.998       8.963       7.922       6.873       5.818       4.744       3.583       2.400       1.206      2.6482E-03
   8    9.998       8.960       7.914       6.857       5.785       4.689       3.550       2.384       1.200      2.6340E-03
   9    9.998       8.957       7.907       6.844       5.764       4.660       3.528       2.371       1.194      2.6214E-03
  10    9.998       8.956       7.903       6.837       5.753       4.648       3.517       2.364       1.191      2.6143E-03

 HEAD WILL BE SAVED ON UNIT   51 AT END OF TIME STEP   50, STRESS PERIOD    3

 DRAWDOWN WILL BE SAVED ON UNIT   52 AT END OF TIME STEP   50, STRESS PERIOD    3
1
  VOLUMETRIC BUDGET FOR ENTIRE MODEL AT END OF TIME STEP   50, STRESS PERIOD   3
  ------------------------------------------------------------------------------

     CUMULATIVE VOLUMES      L**3       RATES FOR THIS TIME STEP      L**3/T
     ------------------                 ------------------------

           IN:                                      IN:
           ---                                      ---
             STORAGE =         691.4933               STORAGE =           6.3294
       CONSTANT HEAD =           0.0000         CONSTANT HEAD =           0.0000
               WELLS =       13000.0000                 WELLS =          60.0000
     HEAD DEP BOUNDS =      173501.2969       HEAD DEP BOUNDS =        1137.2661

            TOTAL IN =      187192.7969              TOTAL IN =        1203.5955

          OUT:                                     OUT:
          ----                                     ----
             STORAGE =        7449.6768               STORAGE =           1.3137
       CONSTANT HEAD =           0.0000         CONSTANT HEAD =           0.0000
               WELLS =           0.0000                 WELLS =           0.0000
     HEAD DEP BOUNDS =      179738.4531       HEAD DEP BOUNDS =        1202.2339

           TOTAL OUT =      187188.1250             TOTAL OUT =        1203.5475

            IN - OUT =           4.6719              IN - OUT =       4.7974E-02

 PERCENT DISCREPANCY =           0.00     PERCENT DISCREPANCY =           0.00






         TIME SUMMARY AT END OF TIME STEP   50 IN STRESS PERIOD    3
                    SECONDS     MINUTES      HOURS       DAYS        YEARS
                    -----------------------------------------------------------
   TIME STEP LENGTH  86400.      1440.0      24.000      1.0000     2.73785E-03
 STRESS PERIOD TIME 4.32000E+06  72000.      1200.0      50.000     0.13689    
         TOTAL TIME 1.30464E+07 2.17440E+05  3624.0      151.00     0.41342    
1
 
 SOLVING FOR HEAD 

 OUTPUT CONTROL FOR STRESS PERIOD    3   TIME STEP   51
    SAVE HEAD FOR ALL LAYERS
    SAVE DRAWDOWN FOR ALL LAYERS
    SAVE BUDGET
    PRINT HEAD FOR ALL LAYERS
    PRINT BUDGET
 UBDSV1 SAVING "         STORAGE" ON UNIT  53 AT TIME STEP 51, STRESS PERIOD   3
 UBDSV2 SAVING "   CONSTANT HEAD" ON UNIT  53 AT TIME STEP 51, STRESS PERIOD   3
 UBDSV1 SAVING "FLOW RIGHT FACE " ON UNIT  53 AT TIME STEP 51, STRESS PERIOD   3
 UBDSV1 SAVING "FLOW FRONT FACE " ON UNIT  53 AT TIME STEP 51, STRESS PERIOD   3
 UBDSV1 SAVING "FLOW LOWER FACE " ON UNIT  53 AT TIME STEP 51, STRESS PERIOD   3

 SAVING SATURATED THICKNESS AND FLOW TERMS ON UNIT   54 FOR MT3DMS
 BY THE LINK-MT3DMS PACKAGE V7 AT TIME STEP   51, STRESS PERIOD    3

1
              HEAD IN LAYER   1 AT END OF TIME STEP  51 IN STRESS PERIOD    3
  ---------------------------------------------------------------------------

            1           2           3           4           5           6           7           8           9          10
 ........................................................................................................................
   1    9.998       8.953       7.894       6.821       5.732       4.625       3.498       2.351       1.187      1.5478E-03
   2    9.998       8.955       7.898       6.827       5.740       4.634       3.506       2.357       1.190      1.5518E-03
   3    9.998       8.958       7.905       6.839       5.757       4.653       3.523       2.368       1.195      1.5595E-03
   4    9.998       8.962       7.915       6.856       5.784       4.688       3.550       2.385       1.203      1.5700E-03
   5    9.998       8.967       7.925       6.876       5.822       4.757       3.588       2.405       1.211      1.5811E-03
   6    9.998       8.969       7.930       6.890       5.865       4.937       3.632       2.418       1.216      1.5874E-03
   7    9.998       8.968       7.927       6.879       5.825       4.760       3.591       2.407       1.212      1.5828E-03
   8    9.998       8.965       7.919       6.862       5.791       4.696       3.556       2.390       1.206      1.5738E-03
   9    9.998       8.962       7.912       6.849       5.769       4.666       3.534       2.377       1.200      1.5658E-03
  10    9.998       8.960       7.908       6.842       5.758       4.653       3.523       2.370       1.197      1.5613E-03
1
              HEAD IN LAYER   2 AT END OF TIME STEP  51 IN STRESS PERIOD    3
  ---------------------------------------------------------------------------

            1           2           3           4           5           6           7           8           9          10
 ........................................................................................................................
   1    9.998       8.951       7.892       6.819       5.730       4.623       3.496       2.349       1.185      2.5444E-03
   2    9.998       8.953       7.896       6.825       5.738       4.632       3.504       2.355       1.188      2.5506E-03
   3    9.998       8.956       7.903       6.837       5.755       4.651       3.520       2.366       1.193      2.5626E-03
   4    9.998       8.961       7.913       6.854       5.782       4.686       3.547       2.383       1.201      2.5791E-03
   5    9.998       8.965       7.923       6.874       5.820       4.753       3.585       2.402       1.209      2.5964E-03
   6    9.998       8.967       7.928       6.887       5.862       4.958       3.629       2.416       1.214      2.6064E-03
   7    9.998       8.966       7.925       6.877       5.823       4.757       3.589       2.404       1.210      2.5992E-03
   8    9.998       8.963       7.917       6.860       5.789       4.694       3.554       2.388       1.204      2.5851E-03
   9    9.998       8.960       7.910       6.847       5.767       4.664       3.532       2.375       1.198      2.5725E-03
  10    9.998       8.958       7.906       6.840       5.756       4.651       3.521       2.368       1.194      2.5655E-03
1
              HEAD IN LAYER   3 AT END OF TIME STEP  51 IN STRESS PERIOD    3
  ---------------------------------------------------------------------------

            1           2           3           4           5           6           7           8           9          10
 ........................................................................................................................
   1    9.998       8.950       7.890       6.817       5.729       4.621       3.494       2.348       1.183      2.5945E-03
   2    9.998       8.952       7.894       6.824       5.737       4.630       3.502       2.353       1.186      2.6007E-03
   3    9.998       8.955       7.902       6.835       5.753       4.650       3.519       2.364       1.191      2.6128E-03
   4    9.998       8.959       7.911       6.852       5.780       4.684       3.545       2.381       1.199      2.6295E-03
   5    9.998       8.963       7.921       6.872       5.817       4.748       3.583       2.400       1.207      2.6470E-03
   6    9.998       8.966       7.927       6.885       5.857       4.890       3.623       2.413       1.211      2.6570E-03
   7    9.998       8.964       7.923       6.875       5.821       4.751       3.586       2.402       1.208      2.6499E-03
   8    9.998       8.962       7.916       6.859       5.787       4.691       3.552       2.386       1.202      2.6356E-03
   9    9.998       8.959       7.909       6.846       5.765       4.662       3.530       2.373       1.196      2.6229E-03
  10    9.998       8.957       7.905       6.839       5.755       4.649       3.519       2.366       1.193      2.6158E-03
1
              HEAD IN LAYER   4 AT END OF TIME STEP  51 IN STRESS PERIOD    3
  ---------------------------------------------------------------------------

            1           2           3           4           5           6           7           8           9          10
 ........................................................................................................................
   1    9.998       8.949       7.889       6.817       5.728       4.620       3.493       2.346       1.182      2.5942E-03
   2    9.998       8.951       7.893       6.822       5.736       4.629       3.501       2.352       1.185      2.6004E-03
   3    9.998       8.954       7.901       6.834       5.752       4.648       3.517       2.363       1.190      2.6125E-03
   4    9.998       8.958       7.910       6.851       5.779       4.682       3.544       2.379       1.198      2.6291E-03
   5    9.998       8.963       7.920       6.871       5.815       4.743       3.581       2.398       1.206      2.6464E-03
   6    9.998       8.965       7.925       6.884       5.853       4.851       3.618       2.411       1.210      2.6564E-03
   7    9.998       8.964       7.922       6.874       5.819       4.747       3.584       2.401       1.207      2.6493E-03
   8    9.998       8.961       7.915       6.858       5.786       4.690       3.550       2.384       1.200      2.6352E-03
   9    9.998       8.958       7.908       6.844       5.764       4.661       3.529       2.372       1.195      2.6225E-03
  10    9.998       8.956       7.904       6.837       5.754       4.648       3.518       2.365       1.191      2.6155E-03
1
              HEAD IN LAYER   5 AT END OF TIME STEP  51 IN STRESS PERIOD    3
  ---------------------------------------------------------------------------

            1           2           3           4           5           6           7           8           9          10
 ........................................................................................................................
   1    9.998       8.949       7.889       6.816       5.727       4.620       3.492       2.346       1.181      2.5931E-03
   2    9.998       8.950       7.893       6.822       5.735       4.629       3.500       2.351       1.184      2.5993E-03
   3    9.998       8.954       7.900       6.834       5.752       4.648       3.517       2.362       1.190      2.6113E-03
   4    9.998       8.958       7.910       6.851       5.778       4.681       3.543       2.379       1.197      2.6278E-03
   5    9.998       8.962       7.919       6.870       5.815       4.740       3.580       2.397       1.205      2.6451E-03
   6    9.998       8.964       7.925       6.883       5.850       4.832       3.615       2.410       1.209      2.6550E-03
   7    9.998       8.963       7.922       6.873       5.818       4.744       3.583       2.400       1.206      2.6480E-03
   8    9.998       8.960       7.914       6.857       5.785       4.689       3.550       2.384       1.200      2.6339E-03
   9    9.998       8.957       7.907       6.844       5.764       4.660       3.528       2.371       1.194      2.6213E-03
  10    9.998       8.956       7.903       6.837       5.753       4.648       3.517       2.364       1.191      2.6143E-03

 HEAD WILL BE SAVED ON UNIT   51 AT END OF TIME STEP   51, STRESS PERIOD    3

 DRAWDOWN WILL BE SAVED ON UNIT   52 AT END OF TIME STEP   51, STRESS PERIOD    3
1
  VOLUMETRIC BUDGET FOR ENTIRE MODEL AT END OF TIME STEP   51, STRESS PERIOD   3
  ------------------------------------------------------------------------------

     CUMULATIVE VOLUMES      L**3       RATES FOR THIS TIME STEP      L**3/T
     ------------------                 ------------------------

           IN:                                      IN:
           ---                                      ---
             STORAGE =         697.6800               STORAGE =           6.1867
       CONSTANT HEAD =           0.0000         CONSTANT HEAD =           0.0000
               WELLS =       13060.0000                 WELLS =          60.0000
     HEAD DEP BOUNDS =      174638.5625       HEAD DEP BOUNDS =        1137.2694

            TOTAL IN =      188396.2500              TOTAL IN =        1203.4561

          OUT:                                     OUT:
          ----                                     ----
             STORAGE =        7450.8926               STORAGE =           1.2160
       CONSTANT HEAD =           0.0000         CONSTANT HEAD =           0.0000
               WELLS =           0.0000                 WELLS =           0.0000
     HEAD DEP BOUNDS =      180940.6562       HEAD DEP BOUNDS =        1202.1975

           TOTAL OUT =      188391.5469             TOTAL OUT =        1203.4136

            IN - OUT =           4.7031              IN - OUT =       4.2480E-02

 PERCENT DISCREPANCY =           0.00     PERCENT DISCREPANCY =           0.00






         TIME SUMMARY AT END OF TIME STEP   51 IN STRESS PERIOD    3
                    SECONDS     MINUTES      HOURS       DAYS        YEARS
                    -----------------------------------------------------------
   TIME STEP LENGTH  86400.      1440.0      24.000      1.0000     2.73785E-03
 STRESS PERIOD TIME 4.40640E+06  73440.      1224.0      51.000     0.13963    
         TOTAL TIME 1.31328E+07 2.18880E+05  3648.0      152.00     0.41615    
1
 
 SOLVING FOR HEAD 

 OUTPUT CONTROL FOR STRESS PERIOD    3   TIME STEP   52
    SAVE HEAD FOR ALL LAYERS
    SAVE DRAWDOWN FOR ALL LAYERS
    SAVE BUDGET
    PRINT HEAD FOR ALL LAYERS
    PRINT BUDGET
 UBDSV1 SAVING "         STORAGE" ON UNIT  53 AT TIME STEP 52, STRESS PERIOD   3
 UBDSV2 SAVING "   CONSTANT HEAD" ON UNIT  53 AT TIME STEP 52, STRESS PERIOD   3
 UBDSV1 SAVING "FLOW RIGHT FACE " ON UNIT  53 AT TIME STEP 52, STRESS PERIOD   3
 UBDSV1 SAVING "FLOW FRONT FACE " ON UNIT  53 AT TIME STEP 52, STRESS PERIOD   3
 UBDSV1 SAVING "FLOW LOWER FACE " ON UNIT  53 AT TIME STEP 52, STRESS PERIOD   3

 SAVING SATURATED THICKNESS AND FLOW TERMS ON UNIT   54 FOR MT3DMS
 BY THE LINK-MT3DMS PACKAGE V7 AT TIME STEP   52, STRESS PERIOD    3

1
              HEAD IN LAYER   1 AT END OF TIME STEP  52 IN STRESS PERIOD    3
  ---------------------------------------------------------------------------

            1           2           3           4           5           6           7           8           9          10
 ........................................................................................................................
   1    9.998       8.953       7.894       6.821       5.732       4.625       3.498       2.351       1.187      1.5479E-03
   2    9.998       8.955       7.898       6.827       5.740       4.634       3.506       2.357       1.190      1.5518E-03
   3    9.998       8.958       7.905       6.839       5.757       4.653       3.523       2.368       1.195      1.5595E-03
   4    9.998       8.962       7.915       6.856       5.784       4.688       3.549       2.385       1.203      1.5699E-03
   5    9.998       8.967       7.925       6.876       5.822       4.756       3.588       2.404       1.211      1.5809E-03
   6    9.998       8.969       7.930       6.889       5.865       4.937       3.632       2.418       1.216      1.5873E-03
   7    9.998       8.968       7.927       6.879       5.825       4.760       3.591       2.407       1.212      1.5827E-03
   8    9.998       8.965       7.919       6.862       5.791       4.696       3.556       2.390       1.206      1.5737E-03
   9    9.998       8.962       7.912       6.849       5.769       4.666       3.534       2.377       1.200      1.5658E-03
  10    9.998       8.960       7.908       6.842       5.758       4.653       3.523       2.370       1.197      1.5613E-03
1
              HEAD IN LAYER   2 AT END OF TIME STEP  52 IN STRESS PERIOD    3
  ---------------------------------------------------------------------------

            1           2           3           4           5           6           7           8           9          10
 ........................................................................................................................
   1    9.998       8.951       7.892       6.819       5.730       4.623       3.496       2.349       1.185      2.5444E-03
   2    9.998       8.953       7.896       6.825       5.738       4.632       3.504       2.355       1.188      2.5506E-03
   3    9.998       8.956       7.903       6.837       5.755       4.651       3.520       2.366       1.193      2.5626E-03
   4    9.998       8.961       7.913       6.854       5.782       4.686       3.547       2.383       1.201      2.5790E-03
   5    9.998       8.965       7.923       6.874       5.819       4.753       3.585       2.402       1.209      2.5963E-03
   6    9.998       8.967       7.928       6.887       5.862       4.958       3.629       2.415       1.213      2.6062E-03
   7    9.998       8.966       7.925       6.877       5.823       4.757       3.588       2.404       1.210      2.5991E-03
   8    9.998       8.963       7.917       6.860       5.789       4.693       3.554       2.388       1.204      2.5850E-03
   9    9.998       8.960       7.910       6.847       5.767       4.664       3.532       2.375       1.198      2.5725E-03
  10    9.998       8.958       7.906       6.840       5.756       4.651       3.521       2.368       1.194      2.5655E-03
1
              HEAD IN LAYER   3 AT END OF TIME STEP  52 IN STRESS PERIOD    3
  ---------------------------------------------------------------------------

            1           2           3           4           5           6           7           8           9          10
 ........................................................................................................................
   1    9.998       8.950       7.890       6.818       5.729       4.621       3.494       2.348       1.183      2.5945E-03
   2    9.998       8.952       7.894       6.824       5.737       4.630       3.502       2.353       1.186      2.6007E-03
   3    9.998       8.955       7.902       6.835       5.753       4.650       3.518       2.364       1.191      2.6128E-03
   4    9.998       8.959       7.911       6.852       5.780       4.684       3.545       2.381       1.199      2.6294E-03
   5    9.998       8.963       7.921       6.872       5.817       4.748       3.582       2.400       1.207      2.6468E-03
   6    9.998       8.965       7.926       6.885       5.857       4.890       3.623       2.413       1.211      2.6568E-03
   7    9.998       8.964       7.923       6.875       5.820       4.751       3.586       2.402       1.208      2.6497E-03
   8    9.998       8.962       7.916       6.859       5.787       4.691       3.552       2.386       1.202      2.6355E-03
   9    9.998       8.959       7.909       6.845       5.765       4.662       3.530       2.373       1.196      2.6228E-03
  10    9.998       8.957       7.905       6.839       5.755       4.649       3.519       2.366       1.193      2.6158E-03
1
              HEAD IN LAYER   4 AT END OF TIME STEP  52 IN STRESS PERIOD    3
  ---------------------------------------------------------------------------

            1           2           3           4           5           6           7           8           9          10
 ........................................................................................................................
   1    9.998       8.949       7.890       6.817       5.728       4.620       3.493       2.346       1.182      2.5943E-03
   2    9.998       8.951       7.893       6.823       5.736       4.629       3.501       2.352       1.185      2.6005E-03
   3    9.998       8.954       7.901       6.834       5.752       4.648       3.517       2.363       1.190      2.6124E-03
   4    9.998       8.958       7.910       6.851       5.778       4.682       3.543       2.379       1.198      2.6290E-03
   5    9.998       8.963       7.920       6.871       5.815       4.743       3.580       2.398       1.206      2.6463E-03
   6    9.998       8.965       7.925       6.884       5.852       4.850       3.618       2.411       1.210      2.6562E-03
   7    9.998       8.964       7.922       6.874       5.819       4.746       3.584       2.400       1.207      2.6491E-03
   8    9.998       8.961       7.915       6.857       5.786       4.690       3.550       2.384       1.200      2.6350E-03
   9    9.998       8.958       7.908       6.844       5.764       4.661       3.528       2.371       1.195      2.6225E-03
  10    9.998       8.956       7.904       6.837       5.754       4.648       3.518       2.365       1.191      2.6155E-03
1
              HEAD IN LAYER   5 AT END OF TIME STEP  52 IN STRESS PERIOD    3
  ---------------------------------------------------------------------------

            1           2           3           4           5           6           7           8           9          10
 ........................................................................................................................
   1    9.998       8.949       7.889       6.816       5.727       4.620       3.493       2.346       1.181      2.5932E-03
   2    9.998       8.950       7.893       6.822       5.735       4.629       3.500       2.351       1.184      2.5993E-03
   3    9.998       8.954       7.900       6.834       5.752       4.648       3.517       2.362       1.190      2.6113E-03
   4    9.998       8.958       7.910       6.851       5.778       4.681       3.543       2.378       1.197      2.6277E-03
   5    9.998       8.962       7.919       6.870       5.814       4.740       3.579       2.397       1.205      2.6450E-03
   6    9.998       8.964       7.925       6.883       5.850       4.832       3.615       2.410       1.209      2.6549E-03
   7    9.998       8.963       7.921       6.873       5.818       4.744       3.583       2.400       1.206      2.6478E-03
   8    9.998       8.960       7.914       6.857       5.785       4.689       3.550       2.384       1.200      2.6338E-03
   9    9.998       8.957       7.907       6.844       5.764       4.660       3.528       2.371       1.194      2.6213E-03
  10    9.998       8.956       7.903       6.837       5.753       4.648       3.517       2.364       1.191      2.6143E-03

 HEAD WILL BE SAVED ON UNIT   51 AT END OF TIME STEP   52, STRESS PERIOD    3

 DRAWDOWN WILL BE SAVED ON UNIT   52 AT END OF TIME STEP   52, STRESS PERIOD    3
1
  VOLUMETRIC BUDGET FOR ENTIRE MODEL AT END OF TIME STEP   52, STRESS PERIOD   3
  ------------------------------------------------------------------------------

     CUMULATIVE VOLUMES      L**3       RATES FOR THIS TIME STEP      L**3/T
     ------------------                 ------------------------

           IN:                                      IN:
           ---                                      ---
             STORAGE =         703.7388               STORAGE =           6.0588
       CONSTANT HEAD =           0.0000         CONSTANT HEAD =           0.0000
               WELLS =       13120.0000                 WELLS =          60.0000
     HEAD DEP BOUNDS =      175775.8438       HEAD DEP BOUNDS =        1137.2805

            TOTAL IN =      189599.5781              TOTAL IN =        1203.3394

          OUT:                                     OUT:
          ----                                     ----
             STORAGE =        7452.0200               STORAGE =           1.1277
       CONSTANT HEAD =           0.0000         CONSTANT HEAD =           0.0000
               WELLS =           0.0000                 WELLS =           0.0000
     HEAD DEP BOUNDS =      182142.8125       HEAD DEP BOUNDS =        1202.1614

           TOTAL OUT =      189594.8281             TOTAL OUT =        1203.2891

            IN - OUT =           4.7500              IN - OUT =       5.0293E-02

 PERCENT DISCREPANCY =           0.00     PERCENT DISCREPANCY =           0.00






         TIME SUMMARY AT END OF TIME STEP   52 IN STRESS PERIOD    3
                    SECONDS     MINUTES      HOURS       DAYS        YEARS
                    -----------------------------------------------------------
   TIME STEP LENGTH  86400.      1440.0      24.000      1.0000     2.73785E-03
 STRESS PERIOD TIME 4.49280E+06  74880.      1248.0      52.000     0.14237    
         TOTAL TIME 1.32192E+07 2.20320E+05  3672.0      153.00     0.41889    
1
 
 SOLVING FOR HEAD 

 OUTPUT CONTROL FOR STRESS PERIOD    3   TIME STEP   53
    SAVE HEAD FOR ALL LAYERS
    SAVE DRAWDOWN FOR ALL LAYERS
    SAVE BUDGET
    PRINT HEAD FOR ALL LAYERS
    PRINT BUDGET
 UBDSV1 SAVING "         STORAGE" ON UNIT  53 AT TIME STEP 53, STRESS PERIOD   3
 UBDSV2 SAVING "   CONSTANT HEAD" ON UNIT  53 AT TIME STEP 53, STRESS PERIOD   3
 UBDSV1 SAVING "FLOW RIGHT FACE " ON UNIT  53 AT TIME STEP 53, STRESS PERIOD   3
 UBDSV1 SAVING "FLOW FRONT FACE " ON UNIT  53 AT TIME STEP 53, STRESS PERIOD   3
 UBDSV1 SAVING "FLOW LOWER FACE " ON UNIT  53 AT TIME STEP 53, STRESS PERIOD   3

 SAVING SATURATED THICKNESS AND FLOW TERMS ON UNIT   54 FOR MT3DMS
 BY THE LINK-MT3DMS PACKAGE V7 AT TIME STEP   53, STRESS PERIOD    3

1
              HEAD IN LAYER   1 AT END OF TIME STEP  53 IN STRESS PERIOD    3
  ---------------------------------------------------------------------------

            1           2           3           4           5           6           7           8           9          10
 ........................................................................................................................
   1    9.998       8.953       7.894       6.821       5.732       4.625       3.498       2.351       1.187      1.5479E-03
   2    9.998       8.955       7.898       6.827       5.740       4.634       3.506       2.357       1.190      1.5518E-03
   3    9.998       8.958       7.905       6.839       5.757       4.653       3.522       2.368       1.195      1.5594E-03
   4    9.998       8.962       7.915       6.856       5.784       4.688       3.549       2.385       1.203      1.5698E-03
   5    9.998       8.966       7.924       6.876       5.822       4.756       3.588       2.404       1.211      1.5808E-03
   6    9.998       8.969       7.930       6.889       5.865       4.937       3.632       2.418       1.216      1.5871E-03
   7    9.998       8.968       7.927       6.879       5.825       4.760       3.591       2.407       1.212      1.5826E-03
   8    9.998       8.965       7.919       6.862       5.791       4.696       3.556       2.390       1.206      1.5736E-03
   9    9.998       8.962       7.912       6.849       5.769       4.666       3.534       2.377       1.200      1.5657E-03
  10    9.998       8.960       7.908       6.842       5.758       4.653       3.523       2.370       1.197      1.5613E-03
1
              HEAD IN LAYER   2 AT END OF TIME STEP  53 IN STRESS PERIOD    3
  ---------------------------------------------------------------------------

            1           2           3           4           5           6           7           8           9          10
 ........................................................................................................................
   1    9.998       8.951       7.892       6.819       5.730       4.623       3.496       2.349       1.185      2.5445E-03
   2    9.998       8.953       7.896       6.825       5.738       4.632       3.504       2.355       1.188      2.5506E-03
   3    9.998       8.956       7.903       6.837       5.755       4.651       3.520       2.366       1.193      2.5625E-03
   4    9.998       8.961       7.913       6.854       5.781       4.686       3.547       2.383       1.201      2.5789E-03
   5    9.998       8.965       7.922       6.873       5.819       4.753       3.585       2.402       1.209      2.5961E-03
   6    9.998       8.967       7.928       6.887       5.862       4.958       3.628       2.415       1.213      2.6060E-03
   7    9.998       8.966       7.925       6.876       5.823       4.756       3.588       2.404       1.210      2.5989E-03
   8    9.998       8.963       7.917       6.860       5.789       4.693       3.554       2.388       1.204      2.5849E-03
   9    9.998       8.960       7.910       6.847       5.767       4.664       3.532       2.375       1.198      2.5724E-03
  10    9.998       8.958       7.906       6.840       5.756       4.651       3.521       2.368       1.194      2.5655E-03
1
              HEAD IN LAYER   3 AT END OF TIME STEP  53 IN STRESS PERIOD    3
  ---------------------------------------------------------------------------

            1           2           3           4           5           6           7           8           9          10
 ........................................................................................................................
   1    9.998       8.950       7.891       6.818       5.729       4.621       3.494       2.348       1.183      2.5946E-03
   2    9.998       8.952       7.894       6.824       5.737       4.630       3.502       2.353       1.186      2.6008E-03
   3    9.998       8.955       7.902       6.835       5.753       4.649       3.518       2.364       1.191      2.6128E-03
   4    9.998       8.959       7.911       6.852       5.780       4.684       3.545       2.380       1.199      2.6293E-03
   5    9.998       8.963       7.921       6.872       5.817       4.747       3.582       2.399       1.207      2.6467E-03
   6    9.998       8.965       7.926       6.885       5.857       4.890       3.623       2.413       1.211      2.6566E-03
   7    9.998       8.964       7.923       6.875       5.820       4.751       3.585       2.402       1.208      2.6495E-03
   8    9.998       8.962       7.916       6.858       5.787       4.691       3.552       2.386       1.202      2.6354E-03
   9    9.998       8.959       7.909       6.845       5.765       4.662       3.530       2.373       1.196      2.6228E-03
  10    9.998       8.957       7.905       6.839       5.755       4.649       3.519       2.366       1.193      2.6158E-03
1
              HEAD IN LAYER   4 AT END OF TIME STEP  53 IN STRESS PERIOD    3
  ---------------------------------------------------------------------------

            1           2           3           4           5           6           7           8           9          10
 ........................................................................................................................
   1    9.998       8.949       7.890       6.817       5.728       4.620       3.493       2.346       1.182      2.5944E-03
   2    9.998       8.951       7.893       6.823       5.736       4.629       3.501       2.352       1.185      2.6005E-03
   3    9.998       8.954       7.901       6.834       5.752       4.648       3.517       2.363       1.190      2.6124E-03
   4    9.998       8.958       7.910       6.851       5.778       4.682       3.543       2.379       1.198      2.6289E-03
   5    9.998       8.962       7.920       6.871       5.815       4.743       3.580       2.398       1.205      2.6461E-03
   6    9.998       8.965       7.925       6.884       5.852       4.850       3.618       2.411       1.210      2.6560E-03
   7    9.998       8.964       7.922       6.873       5.819       4.746       3.583       2.400       1.207      2.6490E-03
   8    9.998       8.961       7.915       6.857       5.786       4.690       3.550       2.384       1.200      2.6349E-03
   9    9.998       8.958       7.908       6.844       5.764       4.661       3.528       2.371       1.195      2.6224E-03
  10    9.998       8.956       7.904       6.838       5.754       4.648       3.518       2.365       1.191      2.6155E-03
1
              HEAD IN LAYER   5 AT END OF TIME STEP  53 IN STRESS PERIOD    3
  ---------------------------------------------------------------------------

            1           2           3           4           5           6           7           8           9          10
 ........................................................................................................................
   1    9.998       8.949       7.889       6.816       5.727       4.620       3.493       2.346       1.181      2.5932E-03
   2    9.998       8.950       7.893       6.822       5.735       4.629       3.500       2.351       1.184      2.5993E-03
   3    9.998       8.954       7.900       6.834       5.751       4.648       3.517       2.362       1.190      2.6112E-03
   4    9.998       8.958       7.910       6.851       5.778       4.681       3.543       2.378       1.197      2.6276E-03
   5    9.998       8.962       7.919       6.870       5.814       4.740       3.579       2.397       1.205      2.6448E-03
   6    9.998       8.964       7.925       6.883       5.850       4.832       3.615       2.410       1.209      2.6547E-03
   7    9.998       8.963       7.921       6.873       5.818       4.744       3.582       2.400       1.206      2.6477E-03
   8    9.998       8.960       7.914       6.857       5.785       4.689       3.549       2.383       1.200      2.6337E-03
   9    9.998       8.957       7.907       6.844       5.763       4.660       3.528       2.371       1.194      2.6212E-03
  10    9.998       8.956       7.903       6.837       5.753       4.648       3.517       2.364       1.191      2.6143E-03

 HEAD WILL BE SAVED ON UNIT   51 AT END OF TIME STEP   53, STRESS PERIOD    3

 DRAWDOWN WILL BE SAVED ON UNIT   52 AT END OF TIME STEP   53, STRESS PERIOD    3
1
  VOLUMETRIC BUDGET FOR ENTIRE MODEL AT END OF TIME STEP   53, STRESS PERIOD   3
  ------------------------------------------------------------------------------

     CUMULATIVE VOLUMES      L**3       RATES FOR THIS TIME STEP      L**3/T
     ------------------                 ------------------------

           IN:                                      IN:
           ---                                      ---
             STORAGE =         709.6761               STORAGE =           5.9373
       CONSTANT HEAD =           0.0000         CONSTANT HEAD =           0.0000
               WELLS =       13180.0000                 WELLS =          60.0000
     HEAD DEP BOUNDS =      176913.1250       HEAD DEP BOUNDS =        1137.2854

            TOTAL IN =      190802.7969              TOTAL IN =        1203.2227

          OUT:                                     OUT:
          ----                                     ----
             STORAGE =        7453.0703               STORAGE =           1.0504
       CONSTANT HEAD =           0.0000         CONSTANT HEAD =           0.0000
               WELLS =           0.0000                 WELLS =           0.0000
     HEAD DEP BOUNDS =      183344.9375       HEAD DEP BOUNDS =        1202.1246

           TOTAL OUT =      190798.0000             TOTAL OUT =        1203.1750

            IN - OUT =           4.7969              IN - OUT =       4.7607E-02

 PERCENT DISCREPANCY =           0.00     PERCENT DISCREPANCY =           0.00






         TIME SUMMARY AT END OF TIME STEP   53 IN STRESS PERIOD    3
                    SECONDS     MINUTES      HOURS       DAYS        YEARS
                    -----------------------------------------------------------
   TIME STEP LENGTH  86400.      1440.0      24.000      1.0000     2.73785E-03
 STRESS PERIOD TIME 4.57920E+06  76320.      1272.0      53.000     0.14511    
         TOTAL TIME 1.33056E+07 2.21760E+05  3696.0      154.00     0.42163    
1
 
 SOLVING FOR HEAD 

 OUTPUT CONTROL FOR STRESS PERIOD    3   TIME STEP   54
    SAVE HEAD FOR ALL LAYERS
    SAVE DRAWDOWN FOR ALL LAYERS
    SAVE BUDGET
    PRINT HEAD FOR ALL LAYERS
    PRINT BUDGET
 UBDSV1 SAVING "         STORAGE" ON UNIT  53 AT TIME STEP 54, STRESS PERIOD   3
 UBDSV2 SAVING "   CONSTANT HEAD" ON UNIT  53 AT TIME STEP 54, STRESS PERIOD   3
 UBDSV1 SAVING "FLOW RIGHT FACE " ON UNIT  53 AT TIME STEP 54, STRESS PERIOD   3
 UBDSV1 SAVING "FLOW FRONT FACE " ON UNIT  53 AT TIME STEP 54, STRESS PERIOD   3
 UBDSV1 SAVING "FLOW LOWER FACE " ON UNIT  53 AT TIME STEP 54, STRESS PERIOD   3

 SAVING SATURATED THICKNESS AND FLOW TERMS ON UNIT   54 FOR MT3DMS
 BY THE LINK-MT3DMS PACKAGE V7 AT TIME STEP   54, STRESS PERIOD    3

1
              HEAD IN LAYER   1 AT END OF TIME STEP  54 IN STRESS PERIOD    3
  ---------------------------------------------------------------------------

            1           2           3           4           5           6           7           8           9          10
 ........................................................................................................................
   1    9.998       8.953       7.894       6.821       5.732       4.625       3.498       2.352       1.187      1.5480E-03
   2    9.998       8.955       7.898       6.827       5.740       4.634       3.506       2.357       1.190      1.5518E-03
   3    9.998       8.958       7.905       6.839       5.757       4.653       3.522       2.368       1.195      1.5594E-03
   4    9.998       8.962       7.915       6.856       5.783       4.688       3.549       2.385       1.203      1.5698E-03
   5    9.998       8.966       7.924       6.875       5.821       4.756       3.588       2.404       1.211      1.5807E-03
   6    9.998       8.969       7.930       6.889       5.864       4.936       3.632       2.418       1.216      1.5870E-03
   7    9.998       8.968       7.926       6.878       5.825       4.759       3.591       2.406       1.212      1.5825E-03
   8    9.998       8.965       7.919       6.862       5.791       4.696       3.556       2.390       1.206      1.5736E-03
   9    9.998       8.962       7.912       6.849       5.769       4.666       3.534       2.377       1.200      1.5657E-03
  10    9.998       8.960       7.908       6.842       5.758       4.653       3.523       2.370       1.197      1.5613E-03
1
              HEAD IN LAYER   2 AT END OF TIME STEP  54 IN STRESS PERIOD    3
  ---------------------------------------------------------------------------

            1           2           3           4           5           6           7           8           9          10
 ........................................................................................................................
   1    9.998       8.951       7.892       6.819       5.730       4.623       3.496       2.350       1.185      2.5446E-03
   2    9.998       8.953       7.896       6.825       5.738       4.632       3.504       2.355       1.188      2.5506E-03
   3    9.998       8.956       7.903       6.837       5.755       4.651       3.520       2.366       1.193      2.5625E-03
   4    9.998       8.961       7.913       6.854       5.781       4.686       3.547       2.382       1.201      2.5788E-03
   5    9.998       8.965       7.922       6.873       5.819       4.753       3.585       2.402       1.209      2.5959E-03
   6    9.998       8.967       7.928       6.887       5.861       4.958       3.628       2.415       1.213      2.6058E-03
   7    9.998       8.966       7.924       6.876       5.822       4.756       3.588       2.404       1.210      2.5987E-03
   8    9.998       8.963       7.917       6.860       5.789       4.693       3.554       2.388       1.203      2.5848E-03
   9    9.998       8.960       7.910       6.847       5.767       4.664       3.532       2.375       1.198      2.5724E-03
  10    9.998       8.958       7.906       6.840       5.756       4.651       3.521       2.368       1.194      2.5654E-03
1
              HEAD IN LAYER   3 AT END OF TIME STEP  54 IN STRESS PERIOD    3
  ---------------------------------------------------------------------------

            1           2           3           4           5           6           7           8           9          10
 ........................................................................................................................
   1    9.998       8.950       7.891       6.818       5.729       4.622       3.494       2.348       1.183      2.5946E-03
   2    9.998       8.952       7.894       6.824       5.737       4.630       3.502       2.353       1.186      2.6008E-03
   3    9.998       8.955       7.902       6.835       5.753       4.649       3.518       2.364       1.191      2.6127E-03
   4    9.998       8.959       7.911       6.852       5.779       4.683       3.545       2.380       1.199      2.6292E-03
   5    9.998       8.963       7.921       6.872       5.817       4.747       3.582       2.399       1.207      2.6465E-03
   6    9.998       8.965       7.926       6.885       5.856       4.890       3.622       2.413       1.211      2.6565E-03
   7    9.998       8.964       7.923       6.875       5.820       4.751       3.585       2.402       1.208      2.6493E-03
   8    9.998       8.962       7.916       6.858       5.787       4.691       3.551       2.385       1.202      2.6353E-03
   9    9.998       8.959       7.909       6.845       5.765       4.662       3.530       2.373       1.196      2.6227E-03
  10    9.998       8.957       7.905       6.839       5.755       4.649       3.519       2.366       1.193      2.6158E-03
1
              HEAD IN LAYER   4 AT END OF TIME STEP  54 IN STRESS PERIOD    3
  ---------------------------------------------------------------------------

            1           2           3           4           5           6           7           8           9          10
 ........................................................................................................................
   1    9.998       8.949       7.890       6.817       5.728       4.620       3.493       2.346       1.182      2.5944E-03
   2    9.998       8.951       7.893       6.823       5.736       4.629       3.501       2.352       1.185      2.6005E-03
   3    9.998       8.954       7.901       6.834       5.752       4.648       3.517       2.363       1.190      2.6124E-03
   4    9.998       8.958       7.910       6.851       5.778       4.682       3.543       2.379       1.198      2.6288E-03
   5    9.998       8.962       7.920       6.870       5.815       4.742       3.580       2.398       1.205      2.6459E-03
   6    9.998       8.965       7.925       6.884       5.852       4.850       3.617       2.411       1.210      2.6558E-03
   7    9.998       8.964       7.922       6.873       5.818       4.746       3.583       2.400       1.207      2.6488E-03
   8    9.998       8.961       7.915       6.857       5.785       4.689       3.550       2.384       1.200      2.6348E-03
   9    9.998       8.958       7.908       6.844       5.764       4.661       3.528       2.371       1.195      2.6224E-03
  10    9.998       8.956       7.904       6.838       5.754       4.648       3.518       2.365       1.191      2.6154E-03
1
              HEAD IN LAYER   5 AT END OF TIME STEP  54 IN STRESS PERIOD    3
  ---------------------------------------------------------------------------

            1           2           3           4           5           6           7           8           9          10
 ........................................................................................................................
   1    9.998       8.949       7.889       6.816       5.727       4.620       3.493       2.346       1.181      2.5933E-03
   2    9.998       8.950       7.893       6.822       5.735       4.629       3.500       2.351       1.184      2.5994E-03
   3    9.998       8.954       7.900       6.834       5.751       4.648       3.516       2.362       1.189      2.6112E-03
   4    9.998       8.958       7.910       6.851       5.778       4.681       3.542       2.378       1.197      2.6275E-03
   5    9.998       8.962       7.919       6.870       5.814       4.740       3.579       2.397       1.205      2.6446E-03
   6    9.998       8.964       7.925       6.883       5.849       4.832       3.615       2.410       1.209      2.6545E-03
   7    9.998       8.963       7.921       6.873       5.817       4.743       3.582       2.399       1.206      2.6475E-03
   8    9.998       8.960       7.914       6.857       5.785       4.689       3.549       2.383       1.200      2.6336E-03
   9    9.998       8.957       7.907       6.844       5.763       4.660       3.528       2.371       1.194      2.6212E-03
  10    9.998       8.956       7.903       6.837       5.753       4.648       3.517       2.364       1.191      2.6143E-03

 HEAD WILL BE SAVED ON UNIT   51 AT END OF TIME STEP   54, STRESS PERIOD    3

 DRAWDOWN WILL BE SAVED ON UNIT   52 AT END OF TIME STEP   54, STRESS PERIOD    3
1
  VOLUMETRIC BUDGET FOR ENTIRE MODEL AT END OF TIME STEP   54, STRESS PERIOD   3
  ------------------------------------------------------------------------------

     CUMULATIVE VOLUMES      L**3       RATES FOR THIS TIME STEP      L**3/T
     ------------------                 ------------------------

           IN:                                      IN:
           ---                                      ---
             STORAGE =         715.5015               STORAGE =           5.8254
       CONSTANT HEAD =           0.0000         CONSTANT HEAD =           0.0000
               WELLS =       13240.0000                 WELLS =          60.0000
     HEAD DEP BOUNDS =      178050.4219       HEAD DEP BOUNDS =        1137.2911

            TOTAL IN =      192005.9219              TOTAL IN =        1203.1165

          OUT:                                     OUT:
          ----                                     ----
             STORAGE =        7454.0444               STORAGE =           0.9739
       CONSTANT HEAD =           0.0000         CONSTANT HEAD =           0.0000
               WELLS =           0.0000                 WELLS =           0.0000
     HEAD DEP BOUNDS =      184547.0312       HEAD DEP BOUNDS =        1202.0890

           TOTAL OUT =      192001.0781             TOTAL OUT =        1203.0630

            IN - OUT =           4.8438              IN - OUT =       5.3467E-02

 PERCENT DISCREPANCY =           0.00     PERCENT DISCREPANCY =           0.00






         TIME SUMMARY AT END OF TIME STEP   54 IN STRESS PERIOD    3
                    SECONDS     MINUTES      HOURS       DAYS        YEARS
                    -----------------------------------------------------------
   TIME STEP LENGTH  86400.      1440.0      24.000      1.0000     2.73785E-03
 STRESS PERIOD TIME 4.66560E+06  77760.      1296.0      54.000     0.14784    
         TOTAL TIME 1.33920E+07 2.23200E+05  3720.0      155.00     0.42437    
1
 
 SOLVING FOR HEAD 

 OUTPUT CONTROL FOR STRESS PERIOD    3   TIME STEP   55
    SAVE HEAD FOR ALL LAYERS
    SAVE DRAWDOWN FOR ALL LAYERS
    SAVE BUDGET
    PRINT HEAD FOR ALL LAYERS
    PRINT BUDGET
 UBDSV1 SAVING "         STORAGE" ON UNIT  53 AT TIME STEP 55, STRESS PERIOD   3
 UBDSV2 SAVING "   CONSTANT HEAD" ON UNIT  53 AT TIME STEP 55, STRESS PERIOD   3
 UBDSV1 SAVING "FLOW RIGHT FACE " ON UNIT  53 AT TIME STEP 55, STRESS PERIOD   3
 UBDSV1 SAVING "FLOW FRONT FACE " ON UNIT  53 AT TIME STEP 55, STRESS PERIOD   3
 UBDSV1 SAVING "FLOW LOWER FACE " ON UNIT  53 AT TIME STEP 55, STRESS PERIOD   3

 SAVING SATURATED THICKNESS AND FLOW TERMS ON UNIT   54 FOR MT3DMS
 BY THE LINK-MT3DMS PACKAGE V7 AT TIME STEP   55, STRESS PERIOD    3

1
              HEAD IN LAYER   1 AT END OF TIME STEP  55 IN STRESS PERIOD    3
  ---------------------------------------------------------------------------

            1           2           3           4           5           6           7           8           9          10
 ........................................................................................................................
   1    9.998       8.953       7.894       6.821       5.732       4.625       3.498       2.352       1.187      1.5480E-03
   2    9.998       8.955       7.898       6.827       5.740       4.634       3.506       2.357       1.190      1.5519E-03
   3    9.998       8.958       7.905       6.839       5.757       4.653       3.522       2.368       1.195      1.5594E-03
   4    9.998       8.962       7.915       6.856       5.783       4.688       3.549       2.385       1.203      1.5697E-03
   5    9.998       8.966       7.924       6.875       5.821       4.756       3.587       2.404       1.211      1.5806E-03
   6    9.998       8.969       7.930       6.889       5.864       4.936       3.631       2.418       1.215      1.5869E-03
   7    9.998       8.968       7.926       6.878       5.825       4.759       3.591       2.406       1.212      1.5823E-03
   8    9.998       8.965       7.919       6.862       5.791       4.695       3.556       2.390       1.206      1.5735E-03
   9    9.998       8.962       7.912       6.849       5.769       4.666       3.534       2.377       1.200      1.5657E-03
  10    9.998       8.960       7.908       6.842       5.758       4.653       3.523       2.370       1.197      1.5613E-03
1
              HEAD IN LAYER   2 AT END OF TIME STEP  55 IN STRESS PERIOD    3
  ---------------------------------------------------------------------------

            1           2           3           4           5           6           7           8           9          10
 ........................................................................................................................
   1    9.998       8.951       7.892       6.819       5.730       4.623       3.496       2.350       1.185      2.5446E-03
   2    9.998       8.953       7.896       6.825       5.738       4.632       3.504       2.355       1.188      2.5507E-03
   3    9.998       8.956       7.903       6.837       5.755       4.651       3.520       2.366       1.193      2.5624E-03
   4    9.998       8.961       7.913       6.854       5.781       4.686       3.547       2.382       1.201      2.5787E-03
   5    9.998       8.965       7.922       6.873       5.819       4.752       3.585       2.401       1.209      2.5957E-03
   6    9.998       8.967       7.928       6.887       5.861       4.957       3.628       2.415       1.213      2.6056E-03
   7    9.998       8.966       7.924       6.876       5.822       4.756       3.588       2.404       1.210      2.5985E-03
   8    9.998       8.963       7.917       6.860       5.788       4.693       3.553       2.387       1.203      2.5847E-03
   9    9.998       8.960       7.910       6.847       5.767       4.664       3.532       2.375       1.198      2.5723E-03
  10    9.998       8.958       7.906       6.840       5.756       4.651       3.521       2.368       1.194      2.5654E-03
1
              HEAD IN LAYER   3 AT END OF TIME STEP  55 IN STRESS PERIOD    3
  ---------------------------------------------------------------------------

            1           2           3           4           5           6           7           8           9          10
 ........................................................................................................................
   1    9.998       8.950       7.891       6.818       5.729       4.622       3.494       2.348       1.183      2.5947E-03
   2    9.998       8.952       7.894       6.824       5.737       4.630       3.502       2.353       1.186      2.6008E-03
   3    9.998       8.955       7.902       6.835       5.753       4.649       3.518       2.364       1.191      2.6127E-03
   4    9.998       8.959       7.911       6.852       5.779       4.683       3.544       2.380       1.199      2.6291E-03
   5    9.998       8.963       7.921       6.871       5.817       4.747       3.582       2.399       1.207      2.6463E-03
   6    9.998       8.965       7.926       6.885       5.856       4.889       3.622       2.412       1.211      2.6563E-03
   7    9.998       8.964       7.923       6.874       5.820       4.750       3.585       2.402       1.208      2.6492E-03
   8    9.998       8.962       7.916       6.858       5.787       4.691       3.551       2.385       1.201      2.6352E-03
   9    9.998       8.959       7.909       6.845       5.765       4.662       3.530       2.373       1.196      2.6227E-03
  10    9.998       8.957       7.905       6.839       5.755       4.649       3.519       2.366       1.193      2.6158E-03
1
              HEAD IN LAYER   4 AT END OF TIME STEP  55 IN STRESS PERIOD    3
  ---------------------------------------------------------------------------

            1           2           3           4           5           6           7           8           9          10
 ........................................................................................................................
   1    9.998       8.949       7.890       6.817       5.728       4.621       3.493       2.347       1.182      2.5945E-03
   2    9.998       8.951       7.893       6.823       5.736       4.629       3.501       2.352       1.185      2.6005E-03
   3    9.998       8.954       7.901       6.834       5.752       4.648       3.517       2.363       1.190      2.6123E-03
   4    9.998       8.958       7.910       6.851       5.778       4.682       3.543       2.379       1.197      2.6287E-03
   5    9.998       8.962       7.920       6.870       5.815       4.742       3.580       2.398       1.205      2.6458E-03
   6    9.998       8.965       7.925       6.884       5.852       4.850       3.617       2.411       1.210      2.6556E-03
   7    9.998       8.963       7.922       6.873       5.818       4.746       3.583       2.400       1.207      2.6486E-03
   8    9.998       8.961       7.914       6.857       5.785       4.689       3.550       2.384       1.200      2.6347E-03
   9    9.998       8.958       7.908       6.844       5.764       4.661       3.528       2.371       1.195      2.6223E-03
  10    9.998       8.956       7.904       6.838       5.754       4.648       3.518       2.365       1.191      2.6154E-03
1
              HEAD IN LAYER   5 AT END OF TIME STEP  55 IN STRESS PERIOD    3
  ---------------------------------------------------------------------------

            1           2           3           4           5           6           7           8           9          10
 ........................................................................................................................
   1    9.998       8.949       7.889       6.816       5.727       4.620       3.493       2.346       1.181      2.5933E-03
   2    9.998       8.950       7.893       6.822       5.735       4.629       3.500       2.351       1.184      2.5994E-03
   3    9.998       8.954       7.900       6.834       5.751       4.648       3.516       2.362       1.189      2.6111E-03
   4    9.998       8.958       7.910       6.851       5.777       4.681       3.542       2.378       1.197      2.6274E-03
   5    9.998       8.962       7.919       6.870       5.814       4.740       3.579       2.397       1.205      2.6445E-03
   6    9.998       8.964       7.925       6.883       5.849       4.831       3.614       2.410       1.209      2.6543E-03
   7    9.998       8.963       7.921       6.873       5.817       4.743       3.582       2.399       1.206      2.6473E-03
   8    9.998       8.960       7.914       6.857       5.785       4.688       3.549       2.383       1.200      2.6335E-03
   9    9.998       8.957       7.907       6.844       5.763       4.660       3.528       2.371       1.194      2.6211E-03
  10    9.998       8.956       7.903       6.837       5.753       4.648       3.517       2.364       1.191      2.6142E-03

 HEAD WILL BE SAVED ON UNIT   51 AT END OF TIME STEP   55, STRESS PERIOD    3

 DRAWDOWN WILL BE SAVED ON UNIT   52 AT END OF TIME STEP   55, STRESS PERIOD    3
1
  VOLUMETRIC BUDGET FOR ENTIRE MODEL AT END OF TIME STEP   55, STRESS PERIOD   3
  ------------------------------------------------------------------------------

     CUMULATIVE VOLUMES      L**3       RATES FOR THIS TIME STEP      L**3/T
     ------------------                 ------------------------

           IN:                                      IN:
           ---                                      ---
             STORAGE =         721.2119               STORAGE =           5.7104
       CONSTANT HEAD =           0.0000         CONSTANT HEAD =           0.0000
               WELLS =       13300.0000                 WELLS =          60.0000
     HEAD DEP BOUNDS =      179187.7188       HEAD DEP BOUNDS =        1137.2976

            TOTAL IN =      193208.9375              TOTAL IN =        1203.0081

          OUT:                                     OUT:
          ----                                     ----
             STORAGE =        7454.9478               STORAGE =           0.9032
       CONSTANT HEAD =           0.0000         CONSTANT HEAD =           0.0000
               WELLS =           0.0000                 WELLS =           0.0000
     HEAD DEP BOUNDS =      185749.0781       HEAD DEP BOUNDS =        1202.0529

           TOTAL OUT =      193204.0312             TOTAL OUT =        1202.9561

            IN - OUT =           4.9062              IN - OUT =       5.2002E-02

 PERCENT DISCREPANCY =           0.00     PERCENT DISCREPANCY =           0.00






         TIME SUMMARY AT END OF TIME STEP   55 IN STRESS PERIOD    3
                    SECONDS     MINUTES      HOURS       DAYS        YEARS
                    -----------------------------------------------------------
   TIME STEP LENGTH  86400.      1440.0      24.000      1.0000     2.73785E-03
 STRESS PERIOD TIME 4.75200E+06  79200.      1320.0      55.000     0.15058    
         TOTAL TIME 1.34784E+07 2.24640E+05  3744.0      156.00     0.42710    
1
 
 SOLVING FOR HEAD 

 OUTPUT CONTROL FOR STRESS PERIOD    3   TIME STEP   56
    SAVE HEAD FOR ALL LAYERS
    SAVE DRAWDOWN FOR ALL LAYERS
    SAVE BUDGET
    PRINT HEAD FOR ALL LAYERS
    PRINT BUDGET
 UBDSV1 SAVING "         STORAGE" ON UNIT  53 AT TIME STEP 56, STRESS PERIOD   3
 UBDSV2 SAVING "   CONSTANT HEAD" ON UNIT  53 AT TIME STEP 56, STRESS PERIOD   3
 UBDSV1 SAVING "FLOW RIGHT FACE " ON UNIT  53 AT TIME STEP 56, STRESS PERIOD   3
 UBDSV1 SAVING "FLOW FRONT FACE " ON UNIT  53 AT TIME STEP 56, STRESS PERIOD   3
 UBDSV1 SAVING "FLOW LOWER FACE " ON UNIT  53 AT TIME STEP 56, STRESS PERIOD   3

 SAVING SATURATED THICKNESS AND FLOW TERMS ON UNIT   54 FOR MT3DMS
 BY THE LINK-MT3DMS PACKAGE V7 AT TIME STEP   56, STRESS PERIOD    3

1
              HEAD IN LAYER   1 AT END OF TIME STEP  56 IN STRESS PERIOD    3
  ---------------------------------------------------------------------------

            1           2           3           4           5           6           7           8           9          10
 ........................................................................................................................
   1    9.998       8.953       7.894       6.821       5.732       4.625       3.498       2.352       1.187      1.5480E-03
   2    9.998       8.955       7.898       6.827       5.740       4.634       3.506       2.357       1.190      1.5519E-03
   3    9.998       8.958       7.905       6.839       5.757       4.653       3.522       2.368       1.195      1.5594E-03
   4    9.998       8.962       7.915       6.856       5.783       4.688       3.549       2.385       1.203      1.5696E-03
   5    9.998       8.966       7.924       6.875       5.821       4.755       3.587       2.404       1.211      1.5805E-03
   6    9.998       8.969       7.930       6.889       5.864       4.936       3.631       2.417       1.215      1.5868E-03
   7    9.998       8.967       7.926       6.878       5.824       4.759       3.590       2.406       1.212      1.5822E-03
   8    9.998       8.965       7.919       6.862       5.791       4.695       3.556       2.390       1.206      1.5734E-03
   9    9.998       8.962       7.912       6.849       5.769       4.666       3.534       2.377       1.200      1.5657E-03
  10    9.998       8.960       7.908       6.842       5.758       4.653       3.523       2.370       1.197      1.5613E-03
1
              HEAD IN LAYER   2 AT END OF TIME STEP  56 IN STRESS PERIOD    3
  ---------------------------------------------------------------------------

            1           2           3           4           5           6           7           8           9          10
 ........................................................................................................................
   1    9.998       8.951       7.892       6.819       5.731       4.623       3.496       2.350       1.185      2.5447E-03
   2    9.998       8.953       7.896       6.825       5.738       4.632       3.504       2.355       1.188      2.5507E-03
   3    9.998       8.956       7.903       6.837       5.755       4.651       3.520       2.366       1.193      2.5624E-03
   4    9.998       8.961       7.913       6.854       5.781       4.685       3.546       2.382       1.201      2.5786E-03
   5    9.998       8.965       7.922       6.873       5.819       4.752       3.584       2.401       1.209      2.5956E-03
   6    9.998       8.967       7.928       6.887       5.861       4.957       3.628       2.415       1.213      2.6054E-03
   7    9.998       8.966       7.924       6.876       5.822       4.756       3.588       2.404       1.210      2.5984E-03
   8    9.998       8.963       7.917       6.860       5.788       4.693       3.553       2.387       1.203      2.5846E-03
   9    9.998       8.960       7.910       6.847       5.767       4.664       3.531       2.375       1.198      2.5723E-03
  10    9.998       8.958       7.906       6.840       5.756       4.651       3.521       2.368       1.194      2.5654E-03
1
              HEAD IN LAYER   3 AT END OF TIME STEP  56 IN STRESS PERIOD    3
  ---------------------------------------------------------------------------

            1           2           3           4           5           6           7           8           9          10
 ........................................................................................................................
   1    9.998       8.950       7.891       6.818       5.729       4.622       3.494       2.348       1.183      2.5947E-03
   2    9.998       8.952       7.894       6.824       5.737       4.630       3.502       2.353       1.186      2.6008E-03
   3    9.998       8.955       7.902       6.835       5.753       4.649       3.518       2.364       1.191      2.6126E-03
   4    9.998       8.959       7.911       6.852       5.779       4.683       3.544       2.380       1.199      2.6290E-03
   5    9.998       8.963       7.921       6.871       5.816       4.747       3.582       2.399       1.207      2.6462E-03
   6    9.998       8.965       7.926       6.885       5.856       4.889       3.622       2.412       1.211      2.6561E-03
   7    9.998       8.964       7.923       6.874       5.820       4.750       3.585       2.401       1.208      2.6490E-03
   8    9.998       8.962       7.915       6.858       5.787       4.691       3.551       2.385       1.201      2.6351E-03
   9    9.998       8.959       7.909       6.845       5.765       4.662       3.530       2.373       1.196      2.6226E-03
  10    9.998       8.957       7.905       6.839       5.755       4.649       3.519       2.366       1.193      2.6157E-03
1
              HEAD IN LAYER   4 AT END OF TIME STEP  56 IN STRESS PERIOD    3
  ---------------------------------------------------------------------------

            1           2           3           4           5           6           7           8           9          10
 ........................................................................................................................
   1    9.998       8.949       7.890       6.817       5.728       4.621       3.493       2.347       1.182      2.5945E-03
   2    9.998       8.951       7.893       6.823       5.736       4.629       3.501       2.352       1.185      2.6005E-03
   3    9.998       8.954       7.901       6.834       5.752       4.648       3.517       2.363       1.190      2.6123E-03
   4    9.998       8.958       7.910       6.851       5.778       4.682       3.543       2.379       1.197      2.6286E-03
   5    9.998       8.962       7.920       6.870       5.815       4.742       3.580       2.397       1.205      2.6456E-03
   6    9.998       8.964       7.925       6.883       5.852       4.850       3.617       2.410       1.210      2.6555E-03
   7    9.998       8.963       7.922       6.873       5.818       4.746       3.583       2.400       1.207      2.6485E-03
   8    9.998       8.961       7.914       6.857       5.785       4.689       3.550       2.384       1.200      2.6346E-03
   9    9.998       8.958       7.908       6.844       5.764       4.661       3.528       2.371       1.195      2.6223E-03
  10    9.998       8.956       7.904       6.838       5.754       4.648       3.518       2.365       1.191      2.6154E-03
1
              HEAD IN LAYER   5 AT END OF TIME STEP  56 IN STRESS PERIOD    3
  ---------------------------------------------------------------------------

            1           2           3           4           5           6           7           8           9          10
 ........................................................................................................................
   1    9.998       8.949       7.889       6.816       5.727       4.620       3.493       2.346       1.181      2.5934E-03
   2    9.998       8.950       7.893       6.822       5.735       4.629       3.500       2.351       1.184      2.5994E-03
   3    9.998       8.954       7.900       6.834       5.751       4.648       3.516       2.362       1.189      2.6111E-03
   4    9.998       8.958       7.910       6.850       5.777       4.681       3.542       2.378       1.197      2.6273E-03
   5    9.998       8.962       7.919       6.870       5.814       4.740       3.579       2.397       1.205      2.6443E-03
   6    9.998       8.964       7.925       6.883       5.849       4.831       3.614       2.410       1.209      2.6541E-03
   7    9.998       8.963       7.921       6.873       5.817       4.743       3.582       2.399       1.206      2.6472E-03
   8    9.998       8.960       7.914       6.857       5.785       4.688       3.549       2.383       1.200      2.6334E-03
   9    9.998       8.957       7.907       6.844       5.763       4.660       3.528       2.371       1.194      2.6210E-03
  10    9.998       8.956       7.903       6.837       5.753       4.648       3.517       2.364       1.191      2.6142E-03

 HEAD WILL BE SAVED ON UNIT   51 AT END OF TIME STEP   56, STRESS PERIOD    3

 DRAWDOWN WILL BE SAVED ON UNIT   52 AT END OF TIME STEP   56, STRESS PERIOD    3
1
  VOLUMETRIC BUDGET FOR ENTIRE MODEL AT END OF TIME STEP   56, STRESS PERIOD   3
  ------------------------------------------------------------------------------

     CUMULATIVE VOLUMES      L**3       RATES FOR THIS TIME STEP      L**3/T
     ------------------                 ------------------------

           IN:                                      IN:
           ---                                      ---
             STORAGE =         726.8176               STORAGE =           5.6057
       CONSTANT HEAD =           0.0000         CONSTANT HEAD =           0.0000
               WELLS =       13360.0000                 WELLS =          60.0000
     HEAD DEP BOUNDS =      180325.0312       HEAD DEP BOUNDS =        1137.3048

            TOTAL IN =      194411.8438              TOTAL IN =        1202.9105

          OUT:                                     OUT:
          ----                                     ----
             STORAGE =        7455.7861               STORAGE =           0.8385
       CONSTANT HEAD =           0.0000         CONSTANT HEAD =           0.0000
               WELLS =           0.0000                 WELLS =           0.0000
     HEAD DEP BOUNDS =      186951.0938       HEAD DEP BOUNDS =        1202.0170

           TOTAL OUT =      194406.8750             TOTAL OUT =        1202.8555

            IN - OUT =           4.9688              IN - OUT =       5.5054E-02

 PERCENT DISCREPANCY =           0.00     PERCENT DISCREPANCY =           0.00






         TIME SUMMARY AT END OF TIME STEP   56 IN STRESS PERIOD    3
                    SECONDS     MINUTES      HOURS       DAYS        YEARS
                    -----------------------------------------------------------
   TIME STEP LENGTH  86400.      1440.0      24.000      1.0000     2.73785E-03
 STRESS PERIOD TIME 4.83840E+06  80640.      1344.0      56.000     0.15332    
         TOTAL TIME 1.35648E+07 2.26080E+05  3768.0      157.00     0.42984    
1
 
 SOLVING FOR HEAD 

 OUTPUT CONTROL FOR STRESS PERIOD    3   TIME STEP   57
    SAVE HEAD FOR ALL LAYERS
    SAVE DRAWDOWN FOR ALL LAYERS
    SAVE BUDGET
    PRINT HEAD FOR ALL LAYERS
    PRINT BUDGET
 UBDSV1 SAVING "         STORAGE" ON UNIT  53 AT TIME STEP 57, STRESS PERIOD   3
 UBDSV2 SAVING "   CONSTANT HEAD" ON UNIT  53 AT TIME STEP 57, STRESS PERIOD   3
 UBDSV1 SAVING "FLOW RIGHT FACE " ON UNIT  53 AT TIME STEP 57, STRESS PERIOD   3
 UBDSV1 SAVING "FLOW FRONT FACE " ON UNIT  53 AT TIME STEP 57, STRESS PERIOD   3
 UBDSV1 SAVING "FLOW LOWER FACE " ON UNIT  53 AT TIME STEP 57, STRESS PERIOD   3

 SAVING SATURATED THICKNESS AND FLOW TERMS ON UNIT   54 FOR MT3DMS
 BY THE LINK-MT3DMS PACKAGE V7 AT TIME STEP   57, STRESS PERIOD    3

1
              HEAD IN LAYER   1 AT END OF TIME STEP  57 IN STRESS PERIOD    3
  ---------------------------------------------------------------------------

            1           2           3           4           5           6           7           8           9          10
 ........................................................................................................................
   1    9.998       8.953       7.894       6.821       5.732       4.625       3.498       2.352       1.187      1.5481E-03
   2    9.998       8.955       7.898       6.827       5.740       4.634       3.506       2.357       1.190      1.5519E-03
   3    9.998       8.958       7.905       6.839       5.757       4.653       3.522       2.368       1.195      1.5594E-03
   4    9.998       8.962       7.915       6.856       5.783       4.688       3.549       2.384       1.203      1.5696E-03
   5    9.998       8.966       7.924       6.875       5.821       4.755       3.587       2.404       1.211      1.5804E-03
   6    9.998       8.968       7.930       6.889       5.864       4.936       3.631       2.417       1.215      1.5867E-03
   7    9.998       8.967       7.926       6.878       5.824       4.759       3.590       2.406       1.212      1.5821E-03
   8    9.998       8.965       7.919       6.862       5.790       4.695       3.555       2.390       1.205      1.5734E-03
   9    9.998       8.962       7.912       6.849       5.769       4.666       3.534       2.377       1.200      1.5656E-03
  10    9.998       8.960       7.908       6.842       5.758       4.653       3.523       2.370       1.197      1.5612E-03
1
              HEAD IN LAYER   2 AT END OF TIME STEP  57 IN STRESS PERIOD    3
  ---------------------------------------------------------------------------

            1           2           3           4           5           6           7           8           9          10
 ........................................................................................................................
   1    9.998       8.951       7.892       6.819       5.731       4.623       3.496       2.350       1.185      2.5447E-03
   2    9.998       8.953       7.896       6.825       5.738       4.632       3.504       2.355       1.188      2.5507E-03
   3    9.998       8.956       7.903       6.837       5.755       4.651       3.520       2.366       1.193      2.5624E-03
   4    9.998       8.961       7.913       6.854       5.781       4.685       3.546       2.382       1.201      2.5785E-03
   5    9.998       8.965       7.922       6.873       5.818       4.752       3.584       2.401       1.208      2.5954E-03
   6    9.998       8.967       7.928       6.887       5.861       4.957       3.627       2.415       1.213      2.6052E-03
   7    9.998       8.966       7.924       6.876       5.822       4.756       3.587       2.404       1.210      2.5982E-03
   8    9.998       8.963       7.917       6.860       5.788       4.693       3.553       2.387       1.203      2.5844E-03
   9    9.998       8.960       7.910       6.847       5.767       4.664       3.531       2.375       1.198      2.5722E-03
  10    9.998       8.958       7.906       6.840       5.756       4.651       3.521       2.368       1.194      2.5654E-03
1
              HEAD IN LAYER   3 AT END OF TIME STEP  57 IN STRESS PERIOD    3
  ---------------------------------------------------------------------------

            1           2           3           4           5           6           7           8           9          10
 ........................................................................................................................
   1    9.998       8.950       7.891       6.818       5.729       4.622       3.495       2.348       1.183      2.5948E-03
   2    9.998       8.952       7.894       6.824       5.737       4.630       3.502       2.353       1.186      2.6008E-03
   3    9.998       8.955       7.902       6.835       5.753       4.649       3.518       2.364       1.191      2.6126E-03
   4    9.998       8.959       7.911       6.852       5.779       4.683       3.544       2.380       1.199      2.6289E-03
   5    9.998       8.963       7.921       6.871       5.816       4.747       3.582       2.399       1.206      2.6460E-03
   6    9.998       8.965       7.926       6.885       5.856       4.889       3.622       2.412       1.211      2.6559E-03
   7    9.998       8.964       7.923       6.874       5.820       4.750       3.585       2.401       1.208      2.6489E-03
   8    9.998       8.961       7.915       6.858       5.786       4.691       3.551       2.385       1.201      2.6350E-03
   9    9.998       8.959       7.909       6.845       5.765       4.662       3.529       2.373       1.196      2.6226E-03
  10    9.998       8.957       7.905       6.839       5.755       4.649       3.519       2.366       1.193      2.6157E-03
1
              HEAD IN LAYER   4 AT END OF TIME STEP  57 IN STRESS PERIOD    3
  ---------------------------------------------------------------------------

            1           2           3           4           5           6           7           8           9          10
 ........................................................................................................................
   1    9.998       8.949       7.890       6.817       5.728       4.621       3.493       2.347       1.182      2.5945E-03
   2    9.998       8.951       7.893       6.823       5.736       4.629       3.501       2.352       1.185      2.6005E-03
   3    9.998       8.954       7.901       6.834       5.752       4.648       3.517       2.363       1.190      2.6123E-03
   4    9.998       8.958       7.910       6.851       5.778       4.682       3.543       2.379       1.197      2.6285E-03
   5    9.998       8.962       7.920       6.870       5.814       4.742       3.580       2.397       1.205      2.6455E-03
   6    9.998       8.964       7.925       6.883       5.851       4.849       3.617       2.410       1.210      2.6553E-03
   7    9.998       8.963       7.922       6.873       5.818       4.745       3.583       2.400       1.206      2.6483E-03
   8    9.998       8.961       7.914       6.857       5.785       4.689       3.550       2.384       1.200      2.6345E-03
   9    9.998       8.958       7.908       6.844       5.764       4.660       3.528       2.371       1.195      2.6222E-03
  10    9.998       8.956       7.904       6.838       5.754       4.648       3.518       2.365       1.191      2.6154E-03
1
              HEAD IN LAYER   5 AT END OF TIME STEP  57 IN STRESS PERIOD    3
  ---------------------------------------------------------------------------

            1           2           3           4           5           6           7           8           9          10
 ........................................................................................................................
   1    9.998       8.949       7.889       6.816       5.727       4.620       3.493       2.346       1.181      2.5934E-03
   2    9.998       8.950       7.893       6.822       5.735       4.629       3.500       2.351       1.184      2.5994E-03
   3    9.998       8.954       7.900       6.834       5.751       4.647       3.516       2.362       1.189      2.6111E-03
   4    9.998       8.958       7.909       6.850       5.777       4.681       3.542       2.378       1.197      2.6272E-03
   5    9.998       8.962       7.919       6.869       5.814       4.739       3.579       2.397       1.205      2.6442E-03
   6    9.998       8.964       7.924       6.883       5.849       4.831       3.614       2.409       1.209      2.6540E-03
   7    9.998       8.963       7.921       6.872       5.817       4.743       3.582       2.399       1.206      2.6470E-03
   8    9.998       8.960       7.914       6.857       5.785       4.688       3.549       2.383       1.200      2.6332E-03
   9    9.998       8.957       7.907       6.844       5.763       4.660       3.528       2.371       1.194      2.6210E-03
  10    9.998       8.956       7.903       6.837       5.753       4.647       3.517       2.364       1.191      2.6142E-03

 HEAD WILL BE SAVED ON UNIT   51 AT END OF TIME STEP   57, STRESS PERIOD    3

 DRAWDOWN WILL BE SAVED ON UNIT   52 AT END OF TIME STEP   57, STRESS PERIOD    3
1
  VOLUMETRIC BUDGET FOR ENTIRE MODEL AT END OF TIME STEP   57, STRESS PERIOD   3
  ------------------------------------------------------------------------------

     CUMULATIVE VOLUMES      L**3       RATES FOR THIS TIME STEP      L**3/T
     ------------------                 ------------------------

           IN:                                      IN:
           ---                                      ---
             STORAGE =         732.3213               STORAGE =           5.5037
       CONSTANT HEAD =           0.0000         CONSTANT HEAD =           0.0000
               WELLS =       13420.0000                 WELLS =          60.0000
     HEAD DEP BOUNDS =      181462.3438       HEAD DEP BOUNDS =        1137.3127

            TOTAL IN =      195614.6719              TOTAL IN =        1202.8164

          OUT:                                     OUT:
          ----                                     ----
             STORAGE =        7456.5679               STORAGE =           0.7817
       CONSTANT HEAD =           0.0000         CONSTANT HEAD =           0.0000
               WELLS =           0.0000                 WELLS =           0.0000
     HEAD DEP BOUNDS =      188153.0781       HEAD DEP BOUNDS =        1201.9823

           TOTAL OUT =      195609.6406             TOTAL OUT =        1202.7639

            IN - OUT =           5.0312              IN - OUT =       5.2490E-02

 PERCENT DISCREPANCY =           0.00     PERCENT DISCREPANCY =           0.00






         TIME SUMMARY AT END OF TIME STEP   57 IN STRESS PERIOD    3
                    SECONDS     MINUTES      HOURS       DAYS        YEARS
                    -----------------------------------------------------------
   TIME STEP LENGTH  86400.      1440.0      24.000      1.0000     2.73785E-03
 STRESS PERIOD TIME 4.92480E+06  82080.      1368.0      57.000     0.15606    
         TOTAL TIME 1.36512E+07 2.27520E+05  3792.0      158.00     0.43258    
1
 
 SOLVING FOR HEAD 

 OUTPUT CONTROL FOR STRESS PERIOD    3   TIME STEP   58
    SAVE HEAD FOR ALL LAYERS
    SAVE DRAWDOWN FOR ALL LAYERS
    SAVE BUDGET
    PRINT HEAD FOR ALL LAYERS
    PRINT BUDGET
 UBDSV1 SAVING "         STORAGE" ON UNIT  53 AT TIME STEP 58, STRESS PERIOD   3
 UBDSV2 SAVING "   CONSTANT HEAD" ON UNIT  53 AT TIME STEP 58, STRESS PERIOD   3
 UBDSV1 SAVING "FLOW RIGHT FACE " ON UNIT  53 AT TIME STEP 58, STRESS PERIOD   3
 UBDSV1 SAVING "FLOW FRONT FACE " ON UNIT  53 AT TIME STEP 58, STRESS PERIOD   3
 UBDSV1 SAVING "FLOW LOWER FACE " ON UNIT  53 AT TIME STEP 58, STRESS PERIOD   3

 SAVING SATURATED THICKNESS AND FLOW TERMS ON UNIT   54 FOR MT3DMS
 BY THE LINK-MT3DMS PACKAGE V7 AT TIME STEP   58, STRESS PERIOD    3

1
              HEAD IN LAYER   1 AT END OF TIME STEP  58 IN STRESS PERIOD    3
  ---------------------------------------------------------------------------

            1           2           3           4           5           6           7           8           9          10
 ........................................................................................................................
   1    9.998       8.953       7.894       6.821       5.733       4.625       3.498       2.352       1.187      1.5481E-03
   2    9.998       8.955       7.898       6.827       5.740       4.634       3.506       2.357       1.190      1.5519E-03
   3    9.998       8.958       7.905       6.839       5.757       4.653       3.522       2.368       1.195      1.5593E-03
   4    9.998       8.962       7.914       6.856       5.783       4.687       3.549       2.384       1.203      1.5695E-03
   5    9.998       8.966       7.924       6.875       5.821       4.755       3.587       2.403       1.211      1.5803E-03
   6    9.998       8.968       7.930       6.889       5.864       4.936       3.631       2.417       1.215      1.5866E-03
   7    9.998       8.967       7.926       6.878       5.824       4.759       3.590       2.406       1.212      1.5820E-03
   8    9.998       8.965       7.919       6.862       5.790       4.695       3.555       2.390       1.205      1.5733E-03
   9    9.998       8.962       7.912       6.849       5.769       4.666       3.534       2.377       1.200      1.5656E-03
  10    9.998       8.960       7.908       6.842       5.758       4.653       3.523       2.370       1.197      1.5612E-03
1
              HEAD IN LAYER   2 AT END OF TIME STEP  58 IN STRESS PERIOD    3
  ---------------------------------------------------------------------------

            1           2           3           4           5           6           7           8           9          10
 ........................................................................................................................
   1    9.998       8.951       7.892       6.819       5.731       4.623       3.496       2.350       1.185      2.5448E-03
   2    9.998       8.953       7.896       6.825       5.738       4.632       3.504       2.355       1.188      2.5507E-03
   3    9.998       8.956       7.903       6.837       5.755       4.651       3.520       2.366       1.193      2.5623E-03
   4    9.998       8.961       7.913       6.854       5.781       4.685       3.546       2.382       1.201      2.5784E-03
   5    9.998       8.965       7.922       6.873       5.818       4.752       3.584       2.401       1.208      2.5953E-03
   6    9.998       8.967       7.928       6.886       5.861       4.957       3.627       2.414       1.213      2.6051E-03
   7    9.998       8.966       7.924       6.876       5.822       4.755       3.587       2.403       1.210      2.5981E-03
   8    9.998       8.963       7.917       6.860       5.788       4.693       3.553       2.387       1.203      2.5843E-03
   9    9.998       8.960       7.910       6.847       5.767       4.664       3.531       2.374       1.198      2.5721E-03
  10    9.998       8.958       7.906       6.840       5.756       4.651       3.521       2.368       1.194      2.5654E-03
1
              HEAD IN LAYER   3 AT END OF TIME STEP  58 IN STRESS PERIOD    3
  ---------------------------------------------------------------------------

            1           2           3           4           5           6           7           8           9          10
 ........................................................................................................................
   1    9.998       8.950       7.891       6.818       5.729       4.622       3.495       2.348       1.183      2.5948E-03
   2    9.998       8.952       7.894       6.824       5.737       4.630       3.502       2.353       1.186      2.6008E-03
   3    9.998       8.955       7.902       6.835       5.753       4.649       3.518       2.364       1.191      2.6126E-03
   4    9.998       8.959       7.911       6.852       5.779       4.683       3.544       2.380       1.199      2.6288E-03
   5    9.998       8.963       7.921       6.871       5.816       4.746       3.581       2.399       1.206      2.6459E-03
   6    9.998       8.965       7.926       6.884       5.856       4.889       3.621       2.412       1.211      2.6557E-03
   7    9.998       8.964       7.923       6.874       5.819       4.750       3.585       2.401       1.208      2.6487E-03
   8    9.998       8.961       7.915       6.858       5.786       4.690       3.551       2.385       1.201      2.6348E-03
   9    9.998       8.959       7.909       6.845       5.765       4.662       3.529       2.372       1.196      2.6225E-03
  10    9.998       8.957       7.905       6.839       5.755       4.649       3.519       2.366       1.193      2.6157E-03
1
              HEAD IN LAYER   4 AT END OF TIME STEP  58 IN STRESS PERIOD    3
  ---------------------------------------------------------------------------

            1           2           3           4           5           6           7           8           9          10
 ........................................................................................................................
   1    9.998       8.949       7.890       6.817       5.728       4.621       3.493       2.347       1.182      2.5946E-03
   2    9.998       8.951       7.894       6.823       5.736       4.629       3.501       2.352       1.185      2.6006E-03
   3    9.998       8.954       7.901       6.834       5.752       4.648       3.517       2.363       1.190      2.6122E-03
   4    9.998       8.958       7.910       6.851       5.778       4.681       3.543       2.379       1.197      2.6284E-03
   5    9.998       8.962       7.919       6.870       5.814       4.742       3.579       2.397       1.205      2.6453E-03
   6    9.998       8.964       7.925       6.883       5.851       4.849       3.617       2.410       1.210      2.6551E-03
   7    9.998       8.963       7.922       6.873       5.818       4.745       3.583       2.400       1.206      2.6482E-03
   8    9.998       8.961       7.914       6.857       5.785       4.689       3.549       2.384       1.200      2.6344E-03
   9    9.998       8.958       7.908       6.844       5.764       4.660       3.528       2.371       1.195      2.6221E-03
  10    9.998       8.956       7.904       6.838       5.754       4.648       3.518       2.365       1.191      2.6153E-03
1
              HEAD IN LAYER   5 AT END OF TIME STEP  58 IN STRESS PERIOD    3
  ---------------------------------------------------------------------------

            1           2           3           4           5           6           7           8           9          10
 ........................................................................................................................
   1    9.998       8.949       7.889       6.816       5.728       4.620       3.493       2.346       1.181      2.5935E-03
   2    9.998       8.950       7.893       6.822       5.735       4.629       3.500       2.351       1.184      2.5994E-03
   3    9.998       8.954       7.900       6.834       5.751       4.647       3.516       2.362       1.189      2.6110E-03
   4    9.998       8.958       7.909       6.850       5.777       4.681       3.542       2.378       1.197      2.6271E-03
   5    9.998       8.962       7.919       6.869       5.813       4.739       3.578       2.396       1.204      2.6440E-03
   6    9.998       8.964       7.924       6.882       5.849       4.831       3.614       2.409       1.209      2.6538E-03
   7    9.998       8.963       7.921       6.872       5.817       4.743       3.582       2.399       1.206      2.6469E-03
   8    9.998       8.960       7.914       6.856       5.784       4.688       3.549       2.383       1.199      2.6331E-03
   9    9.998       8.957       7.907       6.844       5.763       4.660       3.527       2.371       1.194      2.6209E-03
  10    9.998       8.956       7.903       6.837       5.753       4.647       3.517       2.364       1.191      2.6142E-03

 HEAD WILL BE SAVED ON UNIT   51 AT END OF TIME STEP   58, STRESS PERIOD    3

 DRAWDOWN WILL BE SAVED ON UNIT   52 AT END OF TIME STEP   58, STRESS PERIOD    3
1
  VOLUMETRIC BUDGET FOR ENTIRE MODEL AT END OF TIME STEP   58, STRESS PERIOD   3
  ------------------------------------------------------------------------------

     CUMULATIVE VOLUMES      L**3       RATES FOR THIS TIME STEP      L**3/T
     ------------------                 ------------------------

           IN:                                      IN:
           ---                                      ---
             STORAGE =         737.7243               STORAGE =           5.4030
       CONSTANT HEAD =           0.0000         CONSTANT HEAD =           0.0000
               WELLS =       13480.0000                 WELLS =          60.0000
     HEAD DEP BOUNDS =      182599.6719       HEAD DEP BOUNDS =        1137.3212

            TOTAL IN =      196817.3906              TOTAL IN =        1202.7241

          OUT:                                     OUT:
          ----                                     ----
             STORAGE =        7457.2930               STORAGE =           0.7253
       CONSTANT HEAD =           0.0000         CONSTANT HEAD =           0.0000
               WELLS =           0.0000                 WELLS =           0.0000
     HEAD DEP BOUNDS =      189355.0312       HEAD DEP BOUNDS =        1201.9480

           TOTAL OUT =      196812.3281             TOTAL OUT =        1202.6733

            IN - OUT =           5.0625              IN - OUT =       5.0781E-02

 PERCENT DISCREPANCY =           0.00     PERCENT DISCREPANCY =           0.00






         TIME SUMMARY AT END OF TIME STEP   58 IN STRESS PERIOD    3
                    SECONDS     MINUTES      HOURS       DAYS        YEARS
                    -----------------------------------------------------------
   TIME STEP LENGTH  86400.      1440.0      24.000      1.0000     2.73785E-03
 STRESS PERIOD TIME 5.01120E+06  83520.      1392.0      58.000     0.15880    
         TOTAL TIME 1.37376E+07 2.28960E+05  3816.0      159.00     0.43532    
1
 
 SOLVING FOR HEAD 

 OUTPUT CONTROL FOR STRESS PERIOD    3   TIME STEP   59
    SAVE HEAD FOR ALL LAYERS
    SAVE DRAWDOWN FOR ALL LAYERS
    SAVE BUDGET
    PRINT HEAD FOR ALL LAYERS
    PRINT BUDGET
 UBDSV1 SAVING "         STORAGE" ON UNIT  53 AT TIME STEP 59, STRESS PERIOD   3
 UBDSV2 SAVING "   CONSTANT HEAD" ON UNIT  53 AT TIME STEP 59, STRESS PERIOD   3
 UBDSV1 SAVING "FLOW RIGHT FACE " ON UNIT  53 AT TIME STEP 59, STRESS PERIOD   3
 UBDSV1 SAVING "FLOW FRONT FACE " ON UNIT  53 AT TIME STEP 59, STRESS PERIOD   3
 UBDSV1 SAVING "FLOW LOWER FACE " ON UNIT  53 AT TIME STEP 59, STRESS PERIOD   3

 SAVING SATURATED THICKNESS AND FLOW TERMS ON UNIT   54 FOR MT3DMS
 BY THE LINK-MT3DMS PACKAGE V7 AT TIME STEP   59, STRESS PERIOD    3

1
              HEAD IN LAYER   1 AT END OF TIME STEP  59 IN STRESS PERIOD    3
  ---------------------------------------------------------------------------

            1           2           3           4           5           6           7           8           9          10
 ........................................................................................................................
   1    9.998       8.953       7.894       6.821       5.733       4.625       3.498       2.352       1.187      1.5481E-03
   2    9.998       8.955       7.898       6.827       5.740       4.634       3.506       2.357       1.190      1.5519E-03
   3    9.998       8.958       7.905       6.839       5.757       4.653       3.522       2.368       1.195      1.5593E-03
   4    9.998       8.962       7.914       6.856       5.783       4.687       3.548       2.384       1.203      1.5695E-03
   5    9.998       8.966       7.924       6.875       5.821       4.755       3.587       2.403       1.211      1.5802E-03
   6    9.998       8.968       7.929       6.888       5.863       4.935       3.631       2.417       1.215      1.5864E-03
   7    9.998       8.967       7.926       6.878       5.824       4.758       3.590       2.406       1.212      1.5820E-03
   8    9.998       8.965       7.919       6.862       5.790       4.695       3.555       2.389       1.205      1.5732E-03
   9    9.998       8.962       7.912       6.849       5.769       4.666       3.533       2.377       1.200      1.5656E-03
  10    9.998       8.960       7.908       6.842       5.758       4.653       3.523       2.370       1.196      1.5612E-03
1
              HEAD IN LAYER   2 AT END OF TIME STEP  59 IN STRESS PERIOD    3
  ---------------------------------------------------------------------------

            1           2           3           4           5           6           7           8           9          10
 ........................................................................................................................
   1    9.998       8.951       7.892       6.820       5.731       4.624       3.496       2.350       1.185      2.5448E-03
   2    9.998       8.953       7.896       6.825       5.738       4.632       3.504       2.355       1.188      2.5507E-03
   3    9.998       8.956       7.903       6.837       5.755       4.651       3.520       2.366       1.193      2.5623E-03
   4    9.998       8.961       7.912       6.854       5.781       4.685       3.546       2.382       1.200      2.5783E-03
   5    9.998       8.964       7.922       6.873       5.818       4.752       3.584       2.401       1.208      2.5951E-03
   6    9.998       8.967       7.927       6.886       5.860       4.956       3.627       2.414       1.213      2.6049E-03
   7    9.998       8.966       7.924       6.876       5.822       4.755       3.587       2.403       1.210      2.5979E-03
   8    9.998       8.963       7.917       6.860       5.788       4.693       3.553       2.387       1.203      2.5842E-03
   9    9.998       8.960       7.910       6.847       5.767       4.663       3.531       2.374       1.198      2.5721E-03
  10    9.998       8.958       7.906       6.840       5.756       4.651       3.521       2.368       1.194      2.5653E-03
1
              HEAD IN LAYER   3 AT END OF TIME STEP  59 IN STRESS PERIOD    3
  ---------------------------------------------------------------------------

            1           2           3           4           5           6           7           8           9          10
 ........................................................................................................................
   1    9.998       8.950       7.891       6.818       5.729       4.622       3.495       2.348       1.183      2.5949E-03
   2    9.998       8.952       7.895       6.824       5.737       4.630       3.502       2.353       1.186      2.6009E-03
   3    9.998       8.955       7.902       6.835       5.753       4.649       3.518       2.364       1.191      2.6125E-03
   4    9.998       8.959       7.911       6.852       5.779       4.683       3.544       2.380       1.199      2.6287E-03
   5    9.998       8.963       7.920       6.871       5.816       4.746       3.581       2.399       1.206      2.6457E-03
   6    9.998       8.965       7.926       6.884       5.855       4.889       3.621       2.412       1.211      2.6556E-03
   7    9.998       8.964       7.923       6.874       5.819       4.750       3.584       2.401       1.208      2.6486E-03
   8    9.998       8.961       7.915       6.858       5.786       4.690       3.551       2.385       1.201      2.6347E-03
   9    9.998       8.959       7.909       6.845       5.765       4.662       3.529       2.372       1.196      2.6225E-03
  10    9.998       8.957       7.905       6.839       5.755       4.649       3.519       2.366       1.193      2.6156E-03
1
              HEAD IN LAYER   4 AT END OF TIME STEP  59 IN STRESS PERIOD    3
  ---------------------------------------------------------------------------

            1           2           3           4           5           6           7           8           9          10
 ........................................................................................................................
   1    9.998       8.949       7.890       6.817       5.728       4.621       3.493       2.347       1.182      2.5946E-03
   2    9.998       8.951       7.894       6.823       5.736       4.629       3.501       2.352       1.185      2.6006E-03
   3    9.998       8.954       7.901       6.834       5.752       4.648       3.517       2.363       1.190      2.6122E-03
   4    9.998       8.958       7.910       6.851       5.778       4.681       3.543       2.379       1.197      2.6283E-03
   5    9.998       8.962       7.919       6.870       5.814       4.742       3.579       2.397       1.205      2.6452E-03
   6    9.998       8.964       7.925       6.883       5.851       4.849       3.616       2.410       1.209      2.6550E-03
   7    9.998       8.963       7.922       6.873       5.818       4.745       3.582       2.399       1.206      2.6480E-03
   8    9.998       8.961       7.914       6.857       5.785       4.689       3.549       2.384       1.200      2.6343E-03
   9    9.998       8.958       7.908       6.844       5.764       4.660       3.528       2.371       1.194      2.6221E-03
  10    9.998       8.956       7.904       6.837       5.754       4.648       3.518       2.365       1.191      2.6153E-03
1
              HEAD IN LAYER   5 AT END OF TIME STEP  59 IN STRESS PERIOD    3
  ---------------------------------------------------------------------------

            1           2           3           4           5           6           7           8           9          10
 ........................................................................................................................
   1    9.998       8.949       7.889       6.817       5.728       4.620       3.493       2.346       1.181      2.5935E-03
   2    9.998       8.950       7.893       6.822       5.735       4.629       3.500       2.351       1.184      2.5994E-03
   3    9.998       8.954       7.900       6.834       5.751       4.647       3.516       2.362       1.189      2.6110E-03
   4    9.998       8.958       7.909       6.850       5.777       4.681       3.542       2.378       1.197      2.6270E-03
   5    9.998       8.962       7.919       6.869       5.813       4.739       3.578       2.396       1.204      2.6439E-03
   6    9.998       8.964       7.924       6.882       5.849       4.831       3.614       2.409       1.209      2.6536E-03
   7    9.998       8.963       7.921       6.872       5.817       4.743       3.581       2.399       1.206      2.6467E-03
   8    9.998       8.960       7.914       6.856       5.784       4.688       3.549       2.383       1.199      2.6330E-03
   9    9.998       8.957       7.907       6.844       5.763       4.660       3.527       2.370       1.194      2.6209E-03
  10    9.998       8.956       7.903       6.837       5.753       4.647       3.517       2.364       1.191      2.6141E-03

 HEAD WILL BE SAVED ON UNIT   51 AT END OF TIME STEP   59, STRESS PERIOD    3

 DRAWDOWN WILL BE SAVED ON UNIT   52 AT END OF TIME STEP   59, STRESS PERIOD    3
1
  VOLUMETRIC BUDGET FOR ENTIRE MODEL AT END OF TIME STEP   59, STRESS PERIOD   3
  ------------------------------------------------------------------------------

     CUMULATIVE VOLUMES      L**3       RATES FOR THIS TIME STEP      L**3/T
     ------------------                 ------------------------

           IN:                                      IN:
           ---                                      ---
             STORAGE =         743.0299               STORAGE =           5.3056
       CONSTANT HEAD =           0.0000         CONSTANT HEAD =           0.0000
               WELLS =       13540.0000                 WELLS =          60.0000
     HEAD DEP BOUNDS =      183737.0000       HEAD DEP BOUNDS =        1137.3302

            TOTAL IN =      198020.0312              TOTAL IN =        1202.6359

          OUT:                                     OUT:
          ----                                     ----
             STORAGE =        7457.9663               STORAGE =           0.6731
       CONSTANT HEAD =           0.0000         CONSTANT HEAD =           0.0000
               WELLS =           0.0000                 WELLS =           0.0000
     HEAD DEP BOUNDS =      190556.9375       HEAD DEP BOUNDS =        1201.9141

           TOTAL OUT =      198014.9062             TOTAL OUT =        1202.5872

            IN - OUT =           5.1250              IN - OUT =       4.8706E-02

 PERCENT DISCREPANCY =           0.00     PERCENT DISCREPANCY =           0.00






         TIME SUMMARY AT END OF TIME STEP   59 IN STRESS PERIOD    3
                    SECONDS     MINUTES      HOURS       DAYS        YEARS
                    -----------------------------------------------------------
   TIME STEP LENGTH  86400.      1440.0      24.000      1.0000     2.73785E-03
 STRESS PERIOD TIME 5.09760E+06  84960.      1416.0      59.000     0.16153    
         TOTAL TIME 1.38240E+07 2.30400E+05  3840.0      160.00     0.43806    
1
 
 SOLVING FOR HEAD 

 OUTPUT CONTROL FOR STRESS PERIOD    3   TIME STEP   60
    SAVE HEAD FOR ALL LAYERS
    SAVE DRAWDOWN FOR ALL LAYERS
    SAVE BUDGET
    PRINT HEAD FOR ALL LAYERS
    PRINT BUDGET
 UBDSV1 SAVING "         STORAGE" ON UNIT  53 AT TIME STEP 60, STRESS PERIOD   3
 UBDSV2 SAVING "   CONSTANT HEAD" ON UNIT  53 AT TIME STEP 60, STRESS PERIOD   3
 UBDSV1 SAVING "FLOW RIGHT FACE " ON UNIT  53 AT TIME STEP 60, STRESS PERIOD   3
 UBDSV1 SAVING "FLOW FRONT FACE " ON UNIT  53 AT TIME STEP 60, STRESS PERIOD   3
 UBDSV1 SAVING "FLOW LOWER FACE " ON UNIT  53 AT TIME STEP 60, STRESS PERIOD   3

 SAVING SATURATED THICKNESS AND FLOW TERMS ON UNIT   54 FOR MT3DMS
 BY THE LINK-MT3DMS PACKAGE V7 AT TIME STEP   60, STRESS PERIOD    3

1
              HEAD IN LAYER   1 AT END OF TIME STEP  60 IN STRESS PERIOD    3
  ---------------------------------------------------------------------------

            1           2           3           4           5           6           7           8           9          10
 ........................................................................................................................
   1    9.998       8.953       7.894       6.821       5.733       4.626       3.498       2.352       1.187      1.5481E-03
   2    9.998       8.955       7.898       6.827       5.740       4.634       3.506       2.357       1.190      1.5519E-03
   3    9.998       8.958       7.905       6.839       5.757       4.653       3.522       2.368       1.195      1.5593E-03
   4    9.998       8.962       7.914       6.856       5.783       4.687       3.548       2.384       1.203      1.5694E-03
   5    9.998       8.966       7.924       6.875       5.820       4.755       3.586       2.403       1.210      1.5801E-03
   6    9.998       8.968       7.929       6.888       5.863       4.935       3.630       2.417       1.215      1.5863E-03
   7    9.998       8.967       7.926       6.878       5.824       4.758       3.590       2.406       1.212      1.5819E-03
   8    9.998       8.965       7.919       6.862       5.790       4.695       3.555       2.389       1.205      1.5732E-03
   9    9.998       8.962       7.912       6.849       5.769       4.666       3.533       2.377       1.200      1.5655E-03
  10    9.998       8.960       7.908       6.842       5.758       4.653       3.523       2.370       1.196      1.5612E-03
1
              HEAD IN LAYER   2 AT END OF TIME STEP  60 IN STRESS PERIOD    3
  ---------------------------------------------------------------------------

            1           2           3           4           5           6           7           8           9          10
 ........................................................................................................................
   1    9.998       8.951       7.892       6.820       5.731       4.624       3.496       2.350       1.185      2.5449E-03
   2    9.998       8.953       7.896       6.825       5.739       4.632       3.504       2.355       1.188      2.5508E-03
   3    9.998       8.956       7.903       6.837       5.755       4.651       3.520       2.366       1.193      2.5623E-03
   4    9.998       8.960       7.912       6.853       5.781       4.685       3.546       2.382       1.200      2.5782E-03
   5    9.998       8.964       7.922       6.873       5.818       4.751       3.584       2.401       1.208      2.5950E-03
   6    9.998       8.967       7.927       6.886       5.860       4.956       3.627       2.414       1.213      2.6047E-03
   7    9.998       8.966       7.924       6.876       5.821       4.755       3.587       2.403       1.210      2.5978E-03
   8    9.998       8.963       7.917       6.860       5.788       4.692       3.553       2.387       1.203      2.5841E-03
   9    9.998       8.960       7.910       6.847       5.767       4.663       3.531       2.374       1.198      2.5720E-03
  10    9.998       8.958       7.906       6.840       5.756       4.651       3.521       2.368       1.194      2.5653E-03
1
              HEAD IN LAYER   3 AT END OF TIME STEP  60 IN STRESS PERIOD    3
  ---------------------------------------------------------------------------

            1           2           3           4           5           6           7           8           9          10
 ........................................................................................................................
   1    9.998       8.950       7.891       6.818       5.729       4.622       3.495       2.348       1.183      2.5949E-03
   2    9.998       8.952       7.895       6.824       5.737       4.630       3.502       2.353       1.186      2.6009E-03
   3    9.998       8.955       7.902       6.835       5.753       4.649       3.518       2.364       1.191      2.6125E-03
   4    9.998       8.959       7.911       6.852       5.779       4.683       3.544       2.380       1.198      2.6286E-03
   5    9.998       8.963       7.920       6.871       5.816       4.746       3.581       2.398       1.206      2.6456E-03
   6    9.998       8.965       7.926       6.884       5.855       4.888       3.621       2.412       1.211      2.6554E-03
   7    9.998       8.964       7.922       6.874       5.819       4.750       3.584       2.401       1.208      2.6484E-03
   8    9.998       8.961       7.915       6.858       5.786       4.690       3.551       2.385       1.201      2.6346E-03
   9    9.998       8.959       7.909       6.845       5.765       4.662       3.529       2.372       1.196      2.6224E-03
  10    9.998       8.957       7.905       6.839       5.755       4.649       3.519       2.366       1.193      2.6156E-03
1
              HEAD IN LAYER   4 AT END OF TIME STEP  60 IN STRESS PERIOD    3
  ---------------------------------------------------------------------------

            1           2           3           4           5           6           7           8           9          10
 ........................................................................................................................
   1    9.998       8.949       7.890       6.817       5.728       4.621       3.494       2.347       1.182      2.5947E-03
   2    9.998       8.951       7.894       6.823       5.736       4.629       3.501       2.352       1.185      2.6006E-03
   3    9.998       8.954       7.901       6.834       5.752       4.648       3.517       2.363       1.190      2.6121E-03
   4    9.998       8.958       7.910       6.851       5.778       4.681       3.543       2.378       1.197      2.6282E-03
   5    9.998       8.962       7.919       6.870       5.814       4.741       3.579       2.397       1.205      2.6450E-03
   6    9.998       8.964       7.925       6.883       5.851       4.849       3.616       2.410       1.209      2.6548E-03
   7    9.998       8.963       7.921       6.873       5.817       4.745       3.582       2.399       1.206      2.6479E-03
   8    9.998       8.961       7.914       6.857       5.785       4.689       3.549       2.384       1.200      2.6342E-03
   9    9.998       8.958       7.908       6.844       5.764       4.660       3.528       2.371       1.194      2.6220E-03
  10    9.998       8.956       7.904       6.837       5.754       4.648       3.518       2.365       1.191      2.6153E-03
1
              HEAD IN LAYER   5 AT END OF TIME STEP  60 IN STRESS PERIOD    3
  ---------------------------------------------------------------------------

            1           2           3           4           5           6           7           8           9          10
 ........................................................................................................................
   1    9.998       8.949       7.889       6.817       5.728       4.620       3.493       2.346       1.181      2.5935E-03
   2    9.998       8.950       7.893       6.822       5.735       4.629       3.500       2.351       1.184      2.5994E-03
   3    9.998       8.954       7.900       6.834       5.751       4.647       3.516       2.362       1.189      2.6109E-03
   4    9.998       8.958       7.909       6.850       5.777       4.680       3.542       2.378       1.197      2.6269E-03
   5    9.998       8.962       7.919       6.869       5.813       4.739       3.578       2.396       1.204      2.6438E-03
   6    9.998       8.964       7.924       6.882       5.848       4.830       3.614       2.409       1.209      2.6535E-03
   7    9.998       8.963       7.921       6.872       5.817       4.742       3.581       2.399       1.206      2.6466E-03
   8    9.998       8.960       7.914       6.856       5.784       4.688       3.549       2.383       1.199      2.6329E-03
   9    9.998       8.957       7.907       6.844       5.763       4.660       3.527       2.370       1.194      2.6208E-03
  10    9.998       8.956       7.903       6.837       5.753       4.647       3.517       2.364       1.191      2.6141E-03

 HEAD WILL BE SAVED ON UNIT   51 AT END OF TIME STEP   60, STRESS PERIOD    3

 DRAWDOWN WILL BE SAVED ON UNIT   52 AT END OF TIME STEP   60, STRESS PERIOD    3
1
  VOLUMETRIC BUDGET FOR ENTIRE MODEL AT END OF TIME STEP   60, STRESS PERIOD   3
  ------------------------------------------------------------------------------

     CUMULATIVE VOLUMES      L**3       RATES FOR THIS TIME STEP      L**3/T
     ------------------                 ------------------------

           IN:                                      IN:
           ---                                      ---
             STORAGE =         748.2443               STORAGE =           5.2144
       CONSTANT HEAD =           0.0000         CONSTANT HEAD =           0.0000
               WELLS =       13600.0000                 WELLS =          60.0000
     HEAD DEP BOUNDS =      184874.3438       HEAD DEP BOUNDS =        1137.3396

            TOTAL IN =      199222.5938              TOTAL IN =        1202.5540

          OUT:                                     OUT:
          ----                                     ----
             STORAGE =        7458.5889               STORAGE =           0.6224
       CONSTANT HEAD =           0.0000         CONSTANT HEAD =           0.0000
               WELLS =           0.0000                 WELLS =           0.0000
     HEAD DEP BOUNDS =      191758.8125       HEAD DEP BOUNDS =        1201.8804

           TOTAL OUT =      199217.4062             TOTAL OUT =        1202.5028

            IN - OUT =           5.1875              IN - OUT =       5.1147E-02

 PERCENT DISCREPANCY =           0.00     PERCENT DISCREPANCY =           0.00






         TIME SUMMARY AT END OF TIME STEP   60 IN STRESS PERIOD    3
                    SECONDS     MINUTES      HOURS       DAYS        YEARS
                    -----------------------------------------------------------
   TIME STEP LENGTH  86400.      1440.0      24.000      1.0000     2.73785E-03
 STRESS PERIOD TIME 5.18400E+06  86400.      1440.0      60.000     0.16427    
         TOTAL TIME 1.39104E+07 2.31840E+05  3864.0      161.00     0.44079    
1
 
 SOLVING FOR HEAD 

 OUTPUT CONTROL FOR STRESS PERIOD    3   TIME STEP   61
    SAVE HEAD FOR ALL LAYERS
    SAVE DRAWDOWN FOR ALL LAYERS
    SAVE BUDGET
    PRINT HEAD FOR ALL LAYERS
    PRINT BUDGET
 UBDSV1 SAVING "         STORAGE" ON UNIT  53 AT TIME STEP 61, STRESS PERIOD   3
 UBDSV2 SAVING "   CONSTANT HEAD" ON UNIT  53 AT TIME STEP 61, STRESS PERIOD   3
 UBDSV1 SAVING "FLOW RIGHT FACE " ON UNIT  53 AT TIME STEP 61, STRESS PERIOD   3
 UBDSV1 SAVING "FLOW FRONT FACE " ON UNIT  53 AT TIME STEP 61, STRESS PERIOD   3
 UBDSV1 SAVING "FLOW LOWER FACE " ON UNIT  53 AT TIME STEP 61, STRESS PERIOD   3

 SAVING SATURATED THICKNESS AND FLOW TERMS ON UNIT   54 FOR MT3DMS
 BY THE LINK-MT3DMS PACKAGE V7 AT TIME STEP   61, STRESS PERIOD    3

1
              HEAD IN LAYER   1 AT END OF TIME STEP  61 IN STRESS PERIOD    3
  ---------------------------------------------------------------------------

            1           2           3           4           5           6           7           8           9          10
 ........................................................................................................................
   1    9.998       8.953       7.894       6.822       5.733       4.626       3.498       2.352       1.187      1.5482E-03
   2    9.998       8.955       7.898       6.827       5.740       4.634       3.506       2.357       1.190      1.5519E-03
   3    9.998       8.958       7.905       6.839       5.757       4.653       3.522       2.368       1.195      1.5593E-03
   4    9.998       8.962       7.914       6.855       5.783       4.687       3.548       2.384       1.203      1.5693E-03
   5    9.998       8.966       7.924       6.875       5.820       4.754       3.586       2.403       1.210      1.5800E-03
   6    9.998       8.968       7.929       6.888       5.863       4.935       3.630       2.417       1.215      1.5862E-03
   7    9.998       8.967       7.926       6.878       5.824       4.758       3.589       2.405       1.212      1.5818E-03
   8    9.998       8.965       7.919       6.862       5.790       4.695       3.555       2.389       1.205      1.5731E-03
   9    9.998       8.962       7.912       6.849       5.769       4.665       3.533       2.377       1.200      1.5655E-03
  10    9.998       8.960       7.908       6.842       5.758       4.653       3.523       2.370       1.196      1.5612E-03
1
              HEAD IN LAYER   2 AT END OF TIME STEP  61 IN STRESS PERIOD    3
  ---------------------------------------------------------------------------

            1           2           3           4           5           6           7           8           9          10
 ........................................................................................................................
   1    9.998       8.951       7.892       6.820       5.731       4.624       3.496       2.350       1.185      2.5449E-03
   2    9.998       8.953       7.896       6.825       5.739       4.632       3.504       2.355       1.188      2.5508E-03
   3    9.998       8.956       7.903       6.837       5.755       4.651       3.520       2.366       1.193      2.5622E-03
   4    9.998       8.960       7.912       6.853       5.781       4.685       3.546       2.382       1.200      2.5781E-03
   5    9.998       8.964       7.922       6.873       5.818       4.751       3.584       2.401       1.208      2.5948E-03
   6    9.998       8.967       7.927       6.886       5.860       4.956       3.627       2.414       1.213      2.6046E-03
   7    9.998       8.966       7.924       6.875       5.821       4.755       3.587       2.403       1.209      2.5976E-03
   8    9.998       8.963       7.917       6.860       5.788       4.692       3.553       2.387       1.203      2.5840E-03
   9    9.998       8.960       7.910       6.847       5.767       4.663       3.531       2.374       1.198      2.5720E-03
  10    9.998       8.958       7.906       6.840       5.756       4.651       3.521       2.368       1.194      2.5653E-03
1
              HEAD IN LAYER   3 AT END OF TIME STEP  61 IN STRESS PERIOD    3
  ---------------------------------------------------------------------------

            1           2           3           4           5           6           7           8           9          10
 ........................................................................................................................
   1    9.998       8.950       7.891       6.818       5.729       4.622       3.495       2.348       1.183      2.5950E-03
   2    9.998       8.952       7.895       6.824       5.737       4.630       3.502       2.353       1.186      2.6009E-03
   3    9.998       8.955       7.902       6.835       5.753       4.649       3.518       2.364       1.191      2.6124E-03
   4    9.998       8.959       7.911       6.852       5.779       4.683       3.544       2.380       1.198      2.6285E-03
   5    9.998       8.963       7.920       6.871       5.816       4.746       3.581       2.398       1.206      2.6454E-03
   6    9.998       8.965       7.926       6.884       5.855       4.888       3.621       2.412       1.211      2.6552E-03
   7    9.998       8.964       7.922       6.874       5.819       4.749       3.584       2.401       1.207      2.6483E-03
   8    9.998       8.961       7.915       6.858       5.786       4.690       3.551       2.385       1.201      2.6345E-03
   9    9.998       8.959       7.909       6.845       5.765       4.661       3.529       2.372       1.196      2.6223E-03
  10    9.998       8.957       7.905       6.839       5.755       4.649       3.519       2.366       1.193      2.6156E-03
1
              HEAD IN LAYER   4 AT END OF TIME STEP  61 IN STRESS PERIOD    3
  ---------------------------------------------------------------------------

            1           2           3           4           5           6           7           8           9          10
 ........................................................................................................................
   1    9.998       8.949       7.890       6.817       5.728       4.621       3.494       2.347       1.182      2.5947E-03
   2    9.998       8.951       7.894       6.823       5.736       4.629       3.501       2.352       1.185      2.6006E-03
   3    9.998       8.954       7.901       6.834       5.752       4.648       3.517       2.363       1.190      2.6121E-03
   4    9.998       8.958       7.910       6.851       5.778       4.681       3.542       2.378       1.197      2.6281E-03
   5    9.998       8.962       7.919       6.870       5.814       4.741       3.579       2.397       1.205      2.6449E-03
   6    9.998       8.964       7.925       6.883       5.851       4.849       3.616       2.410       1.209      2.6547E-03
   7    9.998       8.963       7.921       6.873       5.817       4.745       3.582       2.399       1.206      2.6477E-03
   8    9.998       8.961       7.914       6.857       5.785       4.689       3.549       2.383       1.200      2.6341E-03
   9    9.998       8.958       7.908       6.844       5.764       4.660       3.528       2.371       1.194      2.6220E-03
  10    9.998       8.956       7.904       6.837       5.754       4.648       3.518       2.365       1.191      2.6152E-03
1
              HEAD IN LAYER   5 AT END OF TIME STEP  61 IN STRESS PERIOD    3
  ---------------------------------------------------------------------------

            1           2           3           4           5           6           7           8           9          10
 ........................................................................................................................
   1    9.998       8.949       7.889       6.817       5.728       4.620       3.493       2.346       1.181      2.5936E-03
   2    9.998       8.951       7.893       6.822       5.735       4.629       3.500       2.351       1.184      2.5994E-03
   3    9.998       8.954       7.900       6.834       5.751       4.647       3.516       2.362       1.189      2.6109E-03
   4    9.998       8.958       7.909       6.850       5.777       4.680       3.542       2.378       1.197      2.6268E-03
   5    9.998       8.962       7.919       6.869       5.813       4.739       3.578       2.396       1.204      2.6436E-03
   6    9.998       8.964       7.924       6.882       5.848       4.830       3.613       2.409       1.209      2.6533E-03
   7    9.998       8.963       7.921       6.872       5.816       4.742       3.581       2.399       1.206      2.6465E-03
   8    9.998       8.960       7.914       6.856       5.784       4.688       3.548       2.383       1.199      2.6328E-03
   9    9.998       8.957       7.907       6.844       5.763       4.660       3.527       2.370       1.194      2.6207E-03
  10    9.998       8.956       7.903       6.837       5.753       4.647       3.517       2.364       1.191      2.6141E-03

 HEAD WILL BE SAVED ON UNIT   51 AT END OF TIME STEP   61, STRESS PERIOD    3

 DRAWDOWN WILL BE SAVED ON UNIT   52 AT END OF TIME STEP   61, STRESS PERIOD    3
1
  VOLUMETRIC BUDGET FOR ENTIRE MODEL AT END OF TIME STEP   61, STRESS PERIOD   3
  ------------------------------------------------------------------------------

     CUMULATIVE VOLUMES      L**3       RATES FOR THIS TIME STEP      L**3/T
     ------------------                 ------------------------

           IN:                                      IN:
           ---                                      ---
             STORAGE =         753.3687               STORAGE =           5.1243
       CONSTANT HEAD =           0.0000         CONSTANT HEAD =           0.0000
               WELLS =       13660.0000                 WELLS =          60.0000
     HEAD DEP BOUNDS =      186011.6875       HEAD DEP BOUNDS =        1137.3496

            TOTAL IN =      200425.0625              TOTAL IN =        1202.4739

          OUT:                                     OUT:
          ----                                     ----
             STORAGE =        7459.1665               STORAGE =           0.5776
       CONSTANT HEAD =           0.0000         CONSTANT HEAD =           0.0000
               WELLS =           0.0000                 WELLS =           0.0000
     HEAD DEP BOUNDS =      192960.6562       HEAD DEP BOUNDS =        1201.8462

           TOTAL OUT =      200419.8281             TOTAL OUT =        1202.4238

            IN - OUT =           5.2344              IN - OUT =       5.0049E-02

 PERCENT DISCREPANCY =           0.00     PERCENT DISCREPANCY =           0.00






         TIME SUMMARY AT END OF TIME STEP   61 IN STRESS PERIOD    3
                    SECONDS     MINUTES      HOURS       DAYS        YEARS
                    -----------------------------------------------------------
   TIME STEP LENGTH  86400.      1440.0      24.000      1.0000     2.73785E-03
 STRESS PERIOD TIME 5.27040E+06  87840.      1464.0      61.000     0.16701    
         TOTAL TIME 1.39968E+07 2.33280E+05  3888.0      162.00     0.44353    
1
 
 SOLVING FOR HEAD 

 OUTPUT CONTROL FOR STRESS PERIOD    3   TIME STEP   62
    SAVE HEAD FOR ALL LAYERS
    SAVE DRAWDOWN FOR ALL LAYERS
    SAVE BUDGET
    PRINT HEAD FOR ALL LAYERS
    PRINT BUDGET
 UBDSV1 SAVING "         STORAGE" ON UNIT  53 AT TIME STEP 62, STRESS PERIOD   3
 UBDSV2 SAVING "   CONSTANT HEAD" ON UNIT  53 AT TIME STEP 62, STRESS PERIOD   3
 UBDSV1 SAVING "FLOW RIGHT FACE " ON UNIT  53 AT TIME STEP 62, STRESS PERIOD   3
 UBDSV1 SAVING "FLOW FRONT FACE " ON UNIT  53 AT TIME STEP 62, STRESS PERIOD   3
 UBDSV1 SAVING "FLOW LOWER FACE " ON UNIT  53 AT TIME STEP 62, STRESS PERIOD   3

 SAVING SATURATED THICKNESS AND FLOW TERMS ON UNIT   54 FOR MT3DMS
 BY THE LINK-MT3DMS PACKAGE V7 AT TIME STEP   62, STRESS PERIOD    3

1
              HEAD IN LAYER   1 AT END OF TIME STEP  62 IN STRESS PERIOD    3
  ---------------------------------------------------------------------------

            1           2           3           4           5           6           7           8           9          10
 ........................................................................................................................
   1    9.998       8.953       7.894       6.822       5.733       4.626       3.499       2.352       1.187      1.5482E-03
   2    9.998       8.955       7.898       6.827       5.741       4.634       3.506       2.357       1.190      1.5519E-03
   3    9.998       8.958       7.905       6.839       5.757       4.653       3.522       2.368       1.195      1.5592E-03
   4    9.998       8.962       7.914       6.855       5.783       4.687       3.548       2.384       1.202      1.5693E-03
   5    9.998       8.966       7.924       6.874       5.820       4.754       3.586       2.403       1.210      1.5799E-03
   6    9.998       8.968       7.929       6.888       5.863       4.935       3.630       2.416       1.215      1.5861E-03
   7    9.998       8.967       7.926       6.877       5.823       4.758       3.589       2.405       1.212      1.5817E-03
   8    9.998       8.965       7.919       6.861       5.790       4.694       3.555       2.389       1.205      1.5730E-03
   9    9.998       8.962       7.912       6.849       5.769       4.665       3.533       2.376       1.200      1.5655E-03
  10    9.998       8.960       7.908       6.842       5.758       4.653       3.523       2.370       1.196      1.5612E-03
1
              HEAD IN LAYER   2 AT END OF TIME STEP  62 IN STRESS PERIOD    3
  ---------------------------------------------------------------------------

            1           2           3           4           5           6           7           8           9          10
 ........................................................................................................................
   1    9.998       8.951       7.892       6.820       5.731       4.624       3.497       2.350       1.185      2.5449E-03
   2    9.998       8.953       7.896       6.825       5.739       4.632       3.504       2.355       1.188      2.5508E-03
   3    9.998       8.956       7.903       6.837       5.755       4.651       3.520       2.366       1.193      2.5622E-03
   4    9.998       8.960       7.912       6.853       5.780       4.685       3.546       2.382       1.200      2.5780E-03
   5    9.998       8.964       7.922       6.872       5.818       4.751       3.583       2.400       1.208      2.5947E-03
   6    9.998       8.966       7.927       6.886       5.860       4.956       3.627       2.414       1.213      2.6044E-03
   7    9.998       8.965       7.924       6.875       5.821       4.755       3.587       2.403       1.209      2.5975E-03
   8    9.998       8.963       7.917       6.859       5.788       4.692       3.553       2.387       1.203      2.5839E-03
   9    9.998       8.960       7.910       6.847       5.766       4.663       3.531       2.374       1.197      2.5719E-03
  10    9.998       8.958       7.906       6.840       5.756       4.651       3.521       2.368       1.194      2.5653E-03
1
              HEAD IN LAYER   3 AT END OF TIME STEP  62 IN STRESS PERIOD    3
  ---------------------------------------------------------------------------

            1           2           3           4           5           6           7           8           9          10
 ........................................................................................................................
   1    9.998       8.950       7.891       6.818       5.729       4.622       3.495       2.348       1.183      2.5950E-03
   2    9.998       8.952       7.895       6.824       5.737       4.631       3.502       2.353       1.186      2.6009E-03
   3    9.998       8.955       7.902       6.835       5.753       4.649       3.518       2.364       1.191      2.6124E-03
   4    9.998       8.959       7.911       6.852       5.779       4.683       3.544       2.380       1.198      2.6284E-03
   5    9.998       8.963       7.920       6.871       5.815       4.746       3.581       2.398       1.206      2.6453E-03
   6    9.998       8.965       7.926       6.884       5.855       4.888       3.621       2.411       1.211      2.6551E-03
   7    9.998       8.964       7.922       6.874       5.819       4.749       3.584       2.401       1.207      2.6481E-03
   8    9.998       8.961       7.915       6.858       5.786       4.690       3.550       2.385       1.201      2.6344E-03
   9    9.998       8.959       7.909       6.845       5.765       4.661       3.529       2.372       1.196      2.6223E-03
  10    9.998       8.957       7.905       6.839       5.755       4.649       3.519       2.366       1.193      2.6156E-03
1
              HEAD IN LAYER   4 AT END OF TIME STEP  62 IN STRESS PERIOD    3
  ---------------------------------------------------------------------------

            1           2           3           4           5           6           7           8           9          10
 ........................................................................................................................
   1    9.998       8.949       7.890       6.817       5.728       4.621       3.494       2.347       1.182      2.5947E-03
   2    9.998       8.951       7.894       6.823       5.736       4.629       3.501       2.352       1.185      2.6006E-03
   3    9.998       8.954       7.901       6.834       5.752       4.648       3.517       2.363       1.190      2.6121E-03
   4    9.998       8.958       7.910       6.851       5.777       4.681       3.542       2.378       1.197      2.6280E-03
   5    9.998       8.962       7.919       6.870       5.814       4.741       3.579       2.397       1.205      2.6448E-03
   6    9.998       8.964       7.925       6.883       5.851       4.848       3.616       2.410       1.209      2.6545E-03
   7    9.998       8.963       7.921       6.872       5.817       4.745       3.582       2.399       1.206      2.6476E-03
   8    9.998       8.961       7.914       6.857       5.785       4.688       3.549       2.383       1.200      2.6340E-03
   9    9.998       8.958       7.908       6.844       5.764       4.660       3.528       2.371       1.194      2.6219E-03
  10    9.998       8.956       7.904       6.837       5.754       4.648       3.518       2.364       1.191      2.6152E-03
1
              HEAD IN LAYER   5 AT END OF TIME STEP  62 IN STRESS PERIOD    3
  ---------------------------------------------------------------------------

            1           2           3           4           5           6           7           8           9          10
 ........................................................................................................................
   1    9.998       8.949       7.890       6.817       5.728       4.620       3.493       2.346       1.181      2.5936E-03
   2    9.998       8.951       7.893       6.822       5.735       4.629       3.500       2.351       1.184      2.5994E-03
   3    9.998       8.954       7.900       6.834       5.751       4.647       3.516       2.362       1.189      2.6109E-03
   4    9.998       8.958       7.909       6.850       5.777       4.680       3.542       2.378       1.197      2.6267E-03
   5    9.998       8.962       7.919       6.869       5.813       4.739       3.578       2.396       1.204      2.6435E-03
   6    9.998       8.964       7.924       6.882       5.848       4.830       3.613       2.409       1.209      2.6532E-03
   7    9.998       8.963       7.921       6.872       5.816       4.742       3.581       2.398       1.206      2.6463E-03
   8    9.998       8.960       7.914       6.856       5.784       4.688       3.548       2.383       1.199      2.6327E-03
   9    9.998       8.957       7.907       6.844       5.763       4.660       3.527       2.370       1.194      2.6207E-03
  10    9.998       8.956       7.903       6.837       5.753       4.647       3.517       2.364       1.191      2.6140E-03

 HEAD WILL BE SAVED ON UNIT   51 AT END OF TIME STEP   62, STRESS PERIOD    3

 DRAWDOWN WILL BE SAVED ON UNIT   52 AT END OF TIME STEP   62, STRESS PERIOD    3
1
  VOLUMETRIC BUDGET FOR ENTIRE MODEL AT END OF TIME STEP   62, STRESS PERIOD   3
  ------------------------------------------------------------------------------

     CUMULATIVE VOLUMES      L**3       RATES FOR THIS TIME STEP      L**3/T
     ------------------                 ------------------------

           IN:                                      IN:
           ---                                      ---
             STORAGE =         758.4069               STORAGE =           5.0383
       CONSTANT HEAD =           0.0000         CONSTANT HEAD =           0.0000
               WELLS =       13720.0000                 WELLS =          60.0000
     HEAD DEP BOUNDS =      187149.0469       HEAD DEP BOUNDS =        1137.3601

            TOTAL IN =      201627.4531              TOTAL IN =        1202.3984

          OUT:                                     OUT:
          ----                                     ----
             STORAGE =        7459.7026               STORAGE =           0.5361
       CONSTANT HEAD =           0.0000         CONSTANT HEAD =           0.0000
               WELLS =           0.0000                 WELLS =           0.0000
     HEAD DEP BOUNDS =      194162.4688       HEAD DEP BOUNDS =        1201.8134

           TOTAL OUT =      201622.1719             TOTAL OUT =        1202.3494

            IN - OUT =           5.2812              IN - OUT =       4.9072E-02

 PERCENT DISCREPANCY =           0.00     PERCENT DISCREPANCY =           0.00






         TIME SUMMARY AT END OF TIME STEP   62 IN STRESS PERIOD    3
                    SECONDS     MINUTES      HOURS       DAYS        YEARS
                    -----------------------------------------------------------
   TIME STEP LENGTH  86400.      1440.0      24.000      1.0000     2.73785E-03
 STRESS PERIOD TIME 5.35680E+06  89280.      1488.0      62.000     0.16975    
         TOTAL TIME 1.40832E+07 2.34720E+05  3912.0      163.00     0.44627    
1
 
 SOLVING FOR HEAD 

 OUTPUT CONTROL FOR STRESS PERIOD    3   TIME STEP   63
    SAVE HEAD FOR ALL LAYERS
    SAVE DRAWDOWN FOR ALL LAYERS
    SAVE BUDGET
    PRINT HEAD FOR ALL LAYERS
    PRINT BUDGET
 UBDSV1 SAVING "         STORAGE" ON UNIT  53 AT TIME STEP 63, STRESS PERIOD   3
 UBDSV2 SAVING "   CONSTANT HEAD" ON UNIT  53 AT TIME STEP 63, STRESS PERIOD   3
 UBDSV1 SAVING "FLOW RIGHT FACE " ON UNIT  53 AT TIME STEP 63, STRESS PERIOD   3
 UBDSV1 SAVING "FLOW FRONT FACE " ON UNIT  53 AT TIME STEP 63, STRESS PERIOD   3
 UBDSV1 SAVING "FLOW LOWER FACE " ON UNIT  53 AT TIME STEP 63, STRESS PERIOD   3

 SAVING SATURATED THICKNESS AND FLOW TERMS ON UNIT   54 FOR MT3DMS
 BY THE LINK-MT3DMS PACKAGE V7 AT TIME STEP   63, STRESS PERIOD    3

1
              HEAD IN LAYER   1 AT END OF TIME STEP  63 IN STRESS PERIOD    3
  ---------------------------------------------------------------------------

            1           2           3           4           5           6           7           8           9          10
 ........................................................................................................................
   1    9.998       8.953       7.894       6.822       5.733       4.626       3.499       2.352       1.187      1.5482E-03
   2    9.998       8.955       7.898       6.827       5.741       4.634       3.506       2.357       1.190      1.5519E-03
   3    9.998       8.958       7.905       6.839       5.757       4.653       3.522       2.368       1.195      1.5592E-03
   4    9.998       8.962       7.914       6.855       5.783       4.687       3.548       2.384       1.202      1.5692E-03
   5    9.998       8.966       7.924       6.874       5.820       4.754       3.586       2.403       1.210      1.5798E-03
   6    9.998       8.968       7.929       6.888       5.863       4.934       3.630       2.416       1.215      1.5860E-03
   7    9.998       8.967       7.926       6.877       5.823       4.758       3.589       2.405       1.212      1.5816E-03
   8    9.998       8.965       7.919       6.861       5.790       4.694       3.555       2.389       1.205      1.5729E-03
   9    9.998       8.962       7.912       6.849       5.768       4.665       3.533       2.376       1.200      1.5654E-03
  10    9.998       8.960       7.908       6.842       5.758       4.653       3.523       2.370       1.196      1.5612E-03
1
              HEAD IN LAYER   2 AT END OF TIME STEP  63 IN STRESS PERIOD    3
  ---------------------------------------------------------------------------

            1           2           3           4           5           6           7           8           9          10
 ........................................................................................................................
   1    9.998       8.951       7.892       6.820       5.731       4.624       3.497       2.350       1.185      2.5450E-03
   2    9.998       8.953       7.896       6.825       5.739       4.632       3.504       2.355       1.188      2.5508E-03
   3    9.998       8.956       7.903       6.837       5.755       4.651       3.520       2.366       1.193      2.5621E-03
   4    9.998       8.960       7.912       6.853       5.780       4.685       3.546       2.382       1.200      2.5779E-03
   5    9.998       8.964       7.922       6.872       5.818       4.751       3.583       2.400       1.208      2.5946E-03
   6    9.998       8.966       7.927       6.886       5.860       4.956       3.626       2.414       1.213      2.6042E-03
   7    9.998       8.965       7.924       6.875       5.821       4.754       3.586       2.403       1.209      2.5973E-03
   8    9.998       8.963       7.917       6.859       5.788       4.692       3.552       2.387       1.203      2.5838E-03
   9    9.998       8.960       7.910       6.847       5.766       4.663       3.531       2.374       1.197      2.5719E-03
  10    9.998       8.958       7.906       6.840       5.756       4.651       3.521       2.368       1.194      2.5652E-03
1
              HEAD IN LAYER   3 AT END OF TIME STEP  63 IN STRESS PERIOD    3
  ---------------------------------------------------------------------------

            1           2           3           4           5           6           7           8           9          10
 ........................................................................................................................
   1    9.998       8.950       7.891       6.818       5.729       4.622       3.495       2.348       1.183      2.5950E-03
   2    9.998       8.952       7.895       6.824       5.737       4.631       3.502       2.353       1.186      2.6009E-03
   3    9.998       8.955       7.902       6.835       5.753       4.649       3.518       2.364       1.191      2.6124E-03
   4    9.998       8.959       7.911       6.852       5.779       4.682       3.544       2.380       1.198      2.6283E-03
   5    9.998       8.963       7.920       6.871       5.815       4.746       3.581       2.398       1.206      2.6452E-03
   6    9.998       8.965       7.926       6.884       5.855       4.888       3.621       2.411       1.211      2.6549E-03
   7    9.998       8.964       7.922       6.874       5.819       4.749       3.584       2.401       1.207      2.6480E-03
   8    9.998       8.961       7.915       6.858       5.786       4.690       3.550       2.385       1.201      2.6343E-03
   9    9.998       8.959       7.909       6.845       5.765       4.661       3.529       2.372       1.196      2.6222E-03
  10    9.998       8.957       7.905       6.838       5.755       4.649       3.519       2.366       1.193      2.6155E-03
1
              HEAD IN LAYER   4 AT END OF TIME STEP  63 IN STRESS PERIOD    3
  ---------------------------------------------------------------------------

            1           2           3           4           5           6           7           8           9          10
 ........................................................................................................................
   1    9.998       8.949       7.890       6.817       5.728       4.621       3.494       2.347       1.182      2.5947E-03
   2    9.998       8.951       7.894       6.823       5.736       4.629       3.501       2.352       1.185      2.6006E-03
   3    9.998       8.954       7.901       6.834       5.752       4.648       3.517       2.363       1.190      2.6120E-03
   4    9.998       8.958       7.910       6.851       5.777       4.681       3.542       2.378       1.197      2.6279E-03
   5    9.998       8.962       7.919       6.869       5.814       4.741       3.579       2.397       1.205      2.6446E-03
   6    9.998       8.964       7.925       6.883       5.850       4.848       3.616       2.410       1.209      2.6544E-03
   7    9.998       8.963       7.921       6.872       5.817       4.744       3.582       2.399       1.206      2.6475E-03
   8    9.998       8.961       7.914       6.857       5.785       4.688       3.549       2.383       1.200      2.6339E-03
   9    9.998       8.958       7.908       6.844       5.764       4.660       3.528       2.371       1.194      2.6218E-03
  10    9.998       8.956       7.904       6.837       5.753       4.648       3.518       2.364       1.191      2.6152E-03
1
              HEAD IN LAYER   5 AT END OF TIME STEP  63 IN STRESS PERIOD    3
  ---------------------------------------------------------------------------

            1           2           3           4           5           6           7           8           9          10
 ........................................................................................................................
   1    9.998       8.949       7.890       6.817       5.728       4.620       3.493       2.346       1.181      2.5936E-03
   2    9.998       8.951       7.893       6.822       5.735       4.629       3.500       2.351       1.184      2.5994E-03
   3    9.998       8.954       7.900       6.834       5.751       4.647       3.516       2.362       1.189      2.6108E-03
   4    9.998       8.958       7.909       6.850       5.777       4.680       3.542       2.378       1.197      2.6267E-03
   5    9.998       8.962       7.919       6.869       5.813       4.738       3.578       2.396       1.204      2.6434E-03
   6    9.998       8.964       7.924       6.882       5.848       4.830       3.613       2.409       1.209      2.6530E-03
   7    9.998       8.963       7.921       6.872       5.816       4.742       3.581       2.398       1.205      2.6462E-03
   8    9.998       8.960       7.914       6.856       5.784       4.688       3.548       2.383       1.199      2.6326E-03
   9    9.998       8.957       7.907       6.844       5.763       4.659       3.527       2.370       1.194      2.6206E-03
  10    9.998       8.956       7.903       6.837       5.753       4.647       3.517       2.364       1.191      2.6140E-03

 HEAD WILL BE SAVED ON UNIT   51 AT END OF TIME STEP   63, STRESS PERIOD    3

 DRAWDOWN WILL BE SAVED ON UNIT   52 AT END OF TIME STEP   63, STRESS PERIOD    3
1
  VOLUMETRIC BUDGET FOR ENTIRE MODEL AT END OF TIME STEP   63, STRESS PERIOD   3
  ------------------------------------------------------------------------------

     CUMULATIVE VOLUMES      L**3       RATES FOR THIS TIME STEP      L**3/T
     ------------------                 ------------------------

           IN:                                      IN:
           ---                                      ---
             STORAGE =         763.3613               STORAGE =           4.9544
       CONSTANT HEAD =           0.0000         CONSTANT HEAD =           0.0000
               WELLS =       13780.0000                 WELLS =          60.0000
     HEAD DEP BOUNDS =      188286.4219       HEAD DEP BOUNDS =        1137.3710

            TOTAL IN =      202829.7812              TOTAL IN =        1202.3253

          OUT:                                     OUT:
          ----                                     ----
             STORAGE =        7460.1963               STORAGE =           0.4936
       CONSTANT HEAD =           0.0000         CONSTANT HEAD =           0.0000
               WELLS =           0.0000                 WELLS =           0.0000
     HEAD DEP BOUNDS =      195364.2500       HEAD DEP BOUNDS =        1201.7799

           TOTAL OUT =      202824.4531             TOTAL OUT =        1202.2736

            IN - OUT =           5.3281              IN - OUT =       5.1758E-02

 PERCENT DISCREPANCY =           0.00     PERCENT DISCREPANCY =           0.00






         TIME SUMMARY AT END OF TIME STEP   63 IN STRESS PERIOD    3
                    SECONDS     MINUTES      HOURS       DAYS        YEARS
                    -----------------------------------------------------------
   TIME STEP LENGTH  86400.      1440.0      24.000      1.0000     2.73785E-03
 STRESS PERIOD TIME 5.44320E+06  90720.      1512.0      63.000     0.17248    
         TOTAL TIME 1.41696E+07 2.36160E+05  3936.0      164.00     0.44901    
1
 
 SOLVING FOR HEAD 

 OUTPUT CONTROL FOR STRESS PERIOD    3   TIME STEP   64
    SAVE HEAD FOR ALL LAYERS
    SAVE DRAWDOWN FOR ALL LAYERS
    SAVE BUDGET
    PRINT HEAD FOR ALL LAYERS
    PRINT BUDGET
 UBDSV1 SAVING "         STORAGE" ON UNIT  53 AT TIME STEP 64, STRESS PERIOD   3
 UBDSV2 SAVING "   CONSTANT HEAD" ON UNIT  53 AT TIME STEP 64, STRESS PERIOD   3
 UBDSV1 SAVING "FLOW RIGHT FACE " ON UNIT  53 AT TIME STEP 64, STRESS PERIOD   3
 UBDSV1 SAVING "FLOW FRONT FACE " ON UNIT  53 AT TIME STEP 64, STRESS PERIOD   3
 UBDSV1 SAVING "FLOW LOWER FACE " ON UNIT  53 AT TIME STEP 64, STRESS PERIOD   3

 SAVING SATURATED THICKNESS AND FLOW TERMS ON UNIT   54 FOR MT3DMS
 BY THE LINK-MT3DMS PACKAGE V7 AT TIME STEP   64, STRESS PERIOD    3

1
              HEAD IN LAYER   1 AT END OF TIME STEP  64 IN STRESS PERIOD    3
  ---------------------------------------------------------------------------

            1           2           3           4           5           6           7           8           9          10
 ........................................................................................................................
   1    9.998       8.953       7.894       6.822       5.733       4.626       3.499       2.352       1.187      1.5482E-03
   2    9.998       8.955       7.898       6.827       5.741       4.634       3.506       2.357       1.190      1.5519E-03
   3    9.998       8.958       7.905       6.839       5.757       4.653       3.522       2.368       1.195      1.5592E-03
   4    9.998       8.962       7.914       6.855       5.782       4.687       3.548       2.384       1.202      1.5691E-03
   5    9.998       8.966       7.924       6.874       5.820       4.754       3.586       2.403       1.210      1.5797E-03
   6    9.998       8.968       7.929       6.888       5.862       4.934       3.630       2.416       1.215      1.5859E-03
   7    9.998       8.967       7.926       6.877       5.823       4.757       3.589       2.405       1.211      1.5814E-03
   8    9.998       8.964       7.919       6.861       5.790       4.694       3.555       2.389       1.205      1.5728E-03
   9    9.998       8.962       7.912       6.849       5.768       4.665       3.533       2.376       1.200      1.5653E-03
  10    9.998       8.960       7.908       6.842       5.758       4.653       3.523       2.370       1.196      1.5611E-03
1
              HEAD IN LAYER   2 AT END OF TIME STEP  64 IN STRESS PERIOD    3
  ---------------------------------------------------------------------------

            1           2           3           4           5           6           7           8           9          10
 ........................................................................................................................
   1    9.998       8.951       7.893       6.820       5.731       4.624       3.497       2.350       1.185      2.5450E-03
   2    9.998       8.953       7.896       6.825       5.739       4.632       3.504       2.355       1.188      2.5508E-03
   3    9.998       8.956       7.903       6.837       5.755       4.651       3.520       2.366       1.193      2.5621E-03
   4    9.998       8.960       7.912       6.853       5.780       4.684       3.546       2.382       1.200      2.5778E-03
   5    9.998       8.964       7.922       6.872       5.817       4.751       3.583       2.400       1.208      2.5944E-03
   6    9.998       8.966       7.927       6.886       5.860       4.956       3.626       2.414       1.212      2.6041E-03
   7    9.998       8.965       7.924       6.875       5.821       4.754       3.586       2.403       1.209      2.5972E-03
   8    9.998       8.963       7.917       6.859       5.787       4.692       3.552       2.387       1.203      2.5837E-03
   9    9.998       8.960       7.910       6.847       5.766       4.663       3.531       2.374       1.197      2.5718E-03
  10    9.998       8.958       7.906       6.840       5.756       4.651       3.521       2.368       1.194      2.5652E-03
1
              HEAD IN LAYER   3 AT END OF TIME STEP  64 IN STRESS PERIOD    3
  ---------------------------------------------------------------------------

            1           2           3           4           5           6           7           8           9          10
 ........................................................................................................................
   1    9.998       8.950       7.891       6.818       5.729       4.622       3.495       2.348       1.183      2.5950E-03
   2    9.998       8.952       7.895       6.824       5.737       4.631       3.502       2.353       1.186      2.6009E-03
   3    9.998       8.955       7.902       6.835       5.753       4.649       3.518       2.364       1.191      2.6123E-03
   4    9.998       8.959       7.911       6.852       5.778       4.682       3.544       2.380       1.198      2.6282E-03
   5    9.998       8.963       7.920       6.870       5.815       4.745       3.580       2.398       1.206      2.6450E-03
   6    9.998       8.965       7.925       6.884       5.855       4.888       3.620       2.411       1.210      2.6548E-03
   7    9.998       8.964       7.922       6.873       5.819       4.749       3.584       2.400       1.207      2.6479E-03
   8    9.998       8.961       7.915       6.858       5.786       4.690       3.550       2.385       1.201      2.6342E-03
   9    9.998       8.959       7.909       6.845       5.765       4.661       3.529       2.372       1.196      2.6222E-03
  10    9.998       8.957       7.905       6.838       5.755       4.649       3.519       2.366       1.193      2.6155E-03
1
              HEAD IN LAYER   4 AT END OF TIME STEP  64 IN STRESS PERIOD    3
  ---------------------------------------------------------------------------

            1           2           3           4           5           6           7           8           9          10
 ........................................................................................................................
   1    9.998       8.949       7.890       6.817       5.728       4.621       3.494       2.347       1.182      2.5948E-03
   2    9.998       8.951       7.894       6.823       5.736       4.629       3.501       2.352       1.185      2.6006E-03
   3    9.998       8.954       7.901       6.834       5.752       4.648       3.517       2.363       1.190      2.6120E-03
   4    9.998       8.958       7.910       6.850       5.777       4.681       3.542       2.378       1.197      2.6278E-03
   5    9.998       8.962       7.919       6.869       5.813       4.741       3.579       2.397       1.205      2.6445E-03
   6    9.998       8.964       7.924       6.882       5.850       4.848       3.616       2.409       1.209      2.6542E-03
   7    9.998       8.963       7.921       6.872       5.817       4.744       3.582       2.399       1.206      2.6473E-03
   8    9.998       8.961       7.914       6.857       5.784       4.688       3.549       2.383       1.200      2.6338E-03
   9    9.998       8.958       7.908       6.844       5.763       4.660       3.528       2.371       1.194      2.6218E-03
  10    9.998       8.956       7.904       6.837       5.753       4.648       3.518       2.364       1.191      2.6151E-03
1
              HEAD IN LAYER   5 AT END OF TIME STEP  64 IN STRESS PERIOD    3
  ---------------------------------------------------------------------------

            1           2           3           4           5           6           7           8           9          10
 ........................................................................................................................
   1    9.998       8.949       7.890       6.817       5.728       4.620       3.493       2.346       1.181      2.5936E-03
   2    9.998       8.951       7.893       6.822       5.735       4.629       3.500       2.351       1.184      2.5994E-03
   3    9.998       8.954       7.900       6.834       5.751       4.647       3.516       2.362       1.189      2.6108E-03
   4    9.998       8.958       7.909       6.850       5.777       4.680       3.541       2.377       1.196      2.6266E-03
   5    9.998       8.962       7.919       6.869       5.813       4.738       3.577       2.396       1.204      2.6432E-03
   6    9.998       8.964       7.924       6.882       5.848       4.830       3.613       2.409       1.209      2.6529E-03
   7    9.998       8.963       7.921       6.872       5.816       4.742       3.581       2.398       1.205      2.6461E-03
   8    9.998       8.960       7.914       6.856       5.784       4.687       3.548       2.383       1.199      2.6325E-03
   9    9.998       8.957       7.907       6.843       5.763       4.659       3.527       2.370       1.194      2.6206E-03
  10    9.998       8.956       7.903       6.837       5.753       4.647       3.517       2.364       1.191      2.6139E-03

 HEAD WILL BE SAVED ON UNIT   51 AT END OF TIME STEP   64, STRESS PERIOD    3

 DRAWDOWN WILL BE SAVED ON UNIT   52 AT END OF TIME STEP   64, STRESS PERIOD    3
1
  VOLUMETRIC BUDGET FOR ENTIRE MODEL AT END OF TIME STEP   64, STRESS PERIOD   3
  ------------------------------------------------------------------------------

     CUMULATIVE VOLUMES      L**3       RATES FOR THIS TIME STEP      L**3/T
     ------------------                 ------------------------

           IN:                                      IN:
           ---                                      ---
             STORAGE =         768.2375               STORAGE =           4.8762
       CONSTANT HEAD =           0.0000         CONSTANT HEAD =           0.0000
               WELLS =       13840.0000                 WELLS =          60.0000
     HEAD DEP BOUNDS =      189423.7969       HEAD DEP BOUNDS =        1137.3823

            TOTAL IN =      204032.0312              TOTAL IN =        1202.2585

          OUT:                                     OUT:
          ----                                     ----
             STORAGE =        7460.6538               STORAGE =           0.4575
       CONSTANT HEAD =           0.0000         CONSTANT HEAD =           0.0000
               WELLS =           0.0000                 WELLS =           0.0000
     HEAD DEP BOUNDS =      196566.0000       HEAD DEP BOUNDS =        1201.7452

           TOTAL OUT =      204026.6562             TOTAL OUT =        1202.2028

            IN - OUT =           5.3750              IN - OUT =       5.5786E-02

 PERCENT DISCREPANCY =           0.00     PERCENT DISCREPANCY =           0.00






         TIME SUMMARY AT END OF TIME STEP   64 IN STRESS PERIOD    3
                    SECONDS     MINUTES      HOURS       DAYS        YEARS
                    -----------------------------------------------------------
   TIME STEP LENGTH  86400.      1440.0      24.000      1.0000     2.73785E-03
 STRESS PERIOD TIME 5.52960E+06  92160.      1536.0      64.000     0.17522    
         TOTAL TIME 1.42560E+07 2.37600E+05  3960.0      165.00     0.45175    
1
 
 SOLVING FOR HEAD 

 OUTPUT CONTROL FOR STRESS PERIOD    3   TIME STEP   65
    SAVE HEAD FOR ALL LAYERS
    SAVE DRAWDOWN FOR ALL LAYERS
    SAVE BUDGET
    PRINT HEAD FOR ALL LAYERS
    PRINT BUDGET
 UBDSV1 SAVING "         STORAGE" ON UNIT  53 AT TIME STEP 65, STRESS PERIOD   3
 UBDSV2 SAVING "   CONSTANT HEAD" ON UNIT  53 AT TIME STEP 65, STRESS PERIOD   3
 UBDSV1 SAVING "FLOW RIGHT FACE " ON UNIT  53 AT TIME STEP 65, STRESS PERIOD   3
 UBDSV1 SAVING "FLOW FRONT FACE " ON UNIT  53 AT TIME STEP 65, STRESS PERIOD   3
 UBDSV1 SAVING "FLOW LOWER FACE " ON UNIT  53 AT TIME STEP 65, STRESS PERIOD   3

 SAVING SATURATED THICKNESS AND FLOW TERMS ON UNIT   54 FOR MT3DMS
 BY THE LINK-MT3DMS PACKAGE V7 AT TIME STEP   65, STRESS PERIOD    3

1
              HEAD IN LAYER   1 AT END OF TIME STEP  65 IN STRESS PERIOD    3
  ---------------------------------------------------------------------------

            1           2           3           4           5           6           7           8           9          10
 ........................................................................................................................
   1    9.998       8.953       7.894       6.822       5.733       4.626       3.499       2.352       1.187      1.5483E-03
   2    9.998       8.955       7.898       6.827       5.741       4.634       3.506       2.357       1.190      1.5519E-03
   3    9.998       8.958       7.905       6.839       5.757       4.653       3.522       2.368       1.195      1.5592E-03
   4    9.998       8.962       7.914       6.855       5.782       4.687       3.548       2.384       1.202      1.5690E-03
   5    9.998       8.966       7.924       6.874       5.820       4.754       3.586       2.403       1.210      1.5796E-03
   6    9.998       8.968       7.929       6.888       5.862       4.934       3.630       2.416       1.215      1.5858E-03
   7    9.998       8.967       7.926       6.877       5.823       4.757       3.589       2.405       1.211      1.5814E-03
   8    9.998       8.964       7.919       6.861       5.790       4.694       3.555       2.389       1.205      1.5728E-03
   9    9.998       8.962       7.912       6.849       5.768       4.665       3.533       2.376       1.200      1.5653E-03
  10    9.998       8.960       7.908       6.842       5.758       4.653       3.523       2.370       1.196      1.5611E-03
1
              HEAD IN LAYER   2 AT END OF TIME STEP  65 IN STRESS PERIOD    3
  ---------------------------------------------------------------------------

            1           2           3           4           5           6           7           8           9          10
 ........................................................................................................................
   1    9.998       8.951       7.893       6.820       5.731       4.624       3.497       2.350       1.185      2.5450E-03
   2    9.998       8.953       7.896       6.826       5.739       4.632       3.504       2.355       1.188      2.5508E-03
   3    9.998       8.956       7.903       6.837       5.754       4.651       3.520       2.366       1.193      2.5621E-03
   4    9.998       8.960       7.912       6.853       5.780       4.684       3.545       2.381       1.200      2.5777E-03
   5    9.998       8.964       7.922       6.872       5.817       4.751       3.583       2.400       1.208      2.5943E-03
   6    9.998       8.966       7.927       6.886       5.860       4.955       3.626       2.414       1.212      2.6040E-03
   7    9.998       8.965       7.924       6.875       5.821       4.754       3.586       2.403       1.209      2.5971E-03
   8    9.998       8.963       7.917       6.859       5.787       4.692       3.552       2.387       1.203      2.5836E-03
   9    9.998       8.960       7.910       6.847       5.766       4.663       3.531       2.374       1.197      2.5717E-03
  10    9.998       8.958       7.906       6.840       5.756       4.651       3.521       2.368       1.194      2.5651E-03
1
              HEAD IN LAYER   3 AT END OF TIME STEP  65 IN STRESS PERIOD    3
  ---------------------------------------------------------------------------

            1           2           3           4           5           6           7           8           9          10
 ........................................................................................................................
   1    9.998       8.950       7.891       6.818       5.729       4.622       3.495       2.348       1.183      2.5951E-03
   2    9.998       8.952       7.895       6.824       5.737       4.631       3.502       2.353       1.186      2.6009E-03
   3    9.998       8.955       7.902       6.835       5.753       4.649       3.518       2.364       1.191      2.6123E-03
   4    9.998       8.959       7.911       6.851       5.778       4.682       3.543       2.379       1.198      2.6281E-03
   5    9.998       8.963       7.920       6.870       5.815       4.745       3.580       2.398       1.206      2.6449E-03
   6    9.998       8.965       7.925       6.884       5.854       4.888       3.620       2.411       1.210      2.6547E-03
   7    9.998       8.964       7.922       6.873       5.818       4.749       3.583       2.400       1.207      2.6477E-03
   8    9.998       8.961       7.915       6.858       5.786       4.690       3.550       2.384       1.201      2.6341E-03
   9    9.998       8.959       7.909       6.845       5.765       4.661       3.529       2.372       1.196      2.6221E-03
  10    9.998       8.957       7.905       6.838       5.755       4.649       3.519       2.366       1.192      2.6154E-03
1
              HEAD IN LAYER   4 AT END OF TIME STEP  65 IN STRESS PERIOD    3
  ---------------------------------------------------------------------------

            1           2           3           4           5           6           7           8           9          10
 ........................................................................................................................
   1    9.998       8.949       7.890       6.817       5.728       4.621       3.494       2.347       1.182      2.5948E-03
   2    9.998       8.951       7.894       6.823       5.736       4.629       3.501       2.352       1.185      2.6006E-03
   3    9.998       8.954       7.901       6.834       5.752       4.648       3.517       2.363       1.190      2.6119E-03
   4    9.998       8.958       7.910       6.850       5.777       4.681       3.542       2.378       1.197      2.6277E-03
   5    9.998       8.962       7.919       6.869       5.813       4.741       3.578       2.396       1.205      2.6444E-03
   6    9.998       8.964       7.924       6.882       5.850       4.848       3.615       2.409       1.209      2.6541E-03
   7    9.998       8.963       7.921       6.872       5.817       4.744       3.582       2.399       1.206      2.6472E-03
   8    9.998       8.960       7.914       6.856       5.784       4.688       3.549       2.383       1.200      2.6337E-03
   9    9.998       8.958       7.908       6.844       5.763       4.660       3.528       2.371       1.194      2.6217E-03
  10    9.998       8.956       7.904       6.837       5.753       4.648       3.518       2.364       1.191      2.6151E-03
1
              HEAD IN LAYER   5 AT END OF TIME STEP  65 IN STRESS PERIOD    3
  ---------------------------------------------------------------------------

            1           2           3           4           5           6           7           8           9          10
 ........................................................................................................................
   1    9.998       8.949       7.890       6.817       5.728       4.620       3.493       2.346       1.181      2.5937E-03
   2    9.998       8.951       7.893       6.822       5.735       4.629       3.500       2.351       1.184      2.5994E-03
   3    9.998       8.954       7.900       6.834       5.751       4.647       3.516       2.362       1.189      2.6107E-03
   4    9.998       8.958       7.909       6.850       5.777       4.680       3.541       2.377       1.196      2.6265E-03
   5    9.998       8.962       7.919       6.869       5.812       4.738       3.577       2.396       1.204      2.6431E-03
   6    9.998       8.964       7.924       6.882       5.848       4.830       3.613       2.408       1.208      2.6528E-03
   7    9.998       8.963       7.921       6.872       5.816       4.742       3.580       2.398       1.205      2.6459E-03
   8    9.998       8.960       7.914       6.856       5.784       4.687       3.548       2.382       1.199      2.6324E-03
   9    9.998       8.957       7.907       6.843       5.763       4.659       3.527       2.370       1.194      2.6205E-03
  10    9.998       8.956       7.903       6.837       5.753       4.647       3.517       2.364       1.191      2.6139E-03

 HEAD WILL BE SAVED ON UNIT   51 AT END OF TIME STEP   65, STRESS PERIOD    3

 DRAWDOWN WILL BE SAVED ON UNIT   52 AT END OF TIME STEP   65, STRESS PERIOD    3
1
  VOLUMETRIC BUDGET FOR ENTIRE MODEL AT END OF TIME STEP   65, STRESS PERIOD   3
  ------------------------------------------------------------------------------

     CUMULATIVE VOLUMES      L**3       RATES FOR THIS TIME STEP      L**3/T
     ------------------                 ------------------------

           IN:                                      IN:
           ---                                      ---
             STORAGE =         773.0289               STORAGE =           4.7914
       CONSTANT HEAD =           0.0000         CONSTANT HEAD =           0.0000
               WELLS =       13900.0000                 WELLS =          60.0000
     HEAD DEP BOUNDS =      190561.1875       HEAD DEP BOUNDS =        1137.3939

            TOTAL IN =      205234.2188              TOTAL IN =        1202.1853

          OUT:                                     OUT:
          ----                                     ----
             STORAGE =        7461.0752               STORAGE =           0.4213
       CONSTANT HEAD =           0.0000         CONSTANT HEAD =           0.0000
               WELLS =           0.0000                 WELLS =           0.0000
     HEAD DEP BOUNDS =      197767.7188       HEAD DEP BOUNDS =        1201.7126

           TOTAL OUT =      205228.7969             TOTAL OUT =        1202.1339

            IN - OUT =           5.4219              IN - OUT =       5.1392E-02

 PERCENT DISCREPANCY =           0.00     PERCENT DISCREPANCY =           0.00






         TIME SUMMARY AT END OF TIME STEP   65 IN STRESS PERIOD    3
                    SECONDS     MINUTES      HOURS       DAYS        YEARS
                    -----------------------------------------------------------
   TIME STEP LENGTH  86400.      1440.0      24.000      1.0000     2.73785E-03
 STRESS PERIOD TIME 5.61600E+06  93600.      1560.0      65.000     0.17796    
         TOTAL TIME 1.43424E+07 2.39040E+05  3984.0      166.00     0.45448    
1
 
 SOLVING FOR HEAD 

 OUTPUT CONTROL FOR STRESS PERIOD    3   TIME STEP   66
    SAVE HEAD FOR ALL LAYERS
    SAVE DRAWDOWN FOR ALL LAYERS
    SAVE BUDGET
    PRINT HEAD FOR ALL LAYERS
    PRINT BUDGET
 UBDSV1 SAVING "         STORAGE" ON UNIT  53 AT TIME STEP 66, STRESS PERIOD   3
 UBDSV2 SAVING "   CONSTANT HEAD" ON UNIT  53 AT TIME STEP 66, STRESS PERIOD   3
 UBDSV1 SAVING "FLOW RIGHT FACE " ON UNIT  53 AT TIME STEP 66, STRESS PERIOD   3
 UBDSV1 SAVING "FLOW FRONT FACE " ON UNIT  53 AT TIME STEP 66, STRESS PERIOD   3
 UBDSV1 SAVING "FLOW LOWER FACE " ON UNIT  53 AT TIME STEP 66, STRESS PERIOD   3

 SAVING SATURATED THICKNESS AND FLOW TERMS ON UNIT   54 FOR MT3DMS
 BY THE LINK-MT3DMS PACKAGE V7 AT TIME STEP   66, STRESS PERIOD    3

1
              HEAD IN LAYER   1 AT END OF TIME STEP  66 IN STRESS PERIOD    3
  ---------------------------------------------------------------------------

            1           2           3           4           5           6           7           8           9          10
 ........................................................................................................................
   1    9.998       8.953       7.894       6.822       5.733       4.626       3.499       2.352       1.187      1.5483E-03
   2    9.998       8.955       7.898       6.827       5.741       4.634       3.506       2.357       1.190      1.5519E-03
   3    9.998       8.958       7.905       6.839       5.756       4.653       3.522       2.368       1.195      1.5591E-03
   4    9.998       8.962       7.914       6.855       5.782       4.687       3.548       2.384       1.202      1.5690E-03
   5    9.998       8.966       7.924       6.874       5.819       4.754       3.585       2.402       1.210      1.5795E-03
   6    9.998       8.968       7.929       6.888       5.862       4.934       3.629       2.416       1.215      1.5857E-03
   7    9.998       8.967       7.926       6.877       5.823       4.757       3.589       2.405       1.211      1.5813E-03
   8    9.998       8.964       7.919       6.861       5.789       4.694       3.554       2.389       1.205      1.5727E-03
   9    9.998       8.962       7.912       6.849       5.768       4.665       3.533       2.376       1.199      1.5652E-03
  10    9.998       8.960       7.908       6.842       5.758       4.653       3.523       2.370       1.196      1.5611E-03
1
              HEAD IN LAYER   2 AT END OF TIME STEP  66 IN STRESS PERIOD    3
  ---------------------------------------------------------------------------

            1           2           3           4           5           6           7           8           9          10
 ........................................................................................................................
   1    9.998       8.951       7.893       6.820       5.731       4.624       3.497       2.350       1.185      2.5451E-03
   2    9.998       8.953       7.896       6.826       5.739       4.632       3.504       2.355       1.188      2.5508E-03
   3    9.998       8.956       7.903       6.837       5.754       4.651       3.520       2.366       1.193      2.5620E-03
   4    9.998       8.960       7.912       6.853       5.780       4.684       3.545       2.381       1.200      2.5776E-03
   5    9.998       8.964       7.922       6.872       5.817       4.751       3.583       2.400       1.208      2.5942E-03
   6    9.998       8.966       7.927       6.885       5.859       4.955       3.626       2.413       1.212      2.6038E-03
   7    9.998       8.965       7.924       6.875       5.821       4.754       3.586       2.402       1.209      2.5969E-03
   8    9.998       8.963       7.917       6.859       5.787       4.692       3.552       2.386       1.203      2.5835E-03
   9    9.998       8.960       7.910       6.847       5.766       4.663       3.531       2.374       1.197      2.5717E-03
  10    9.998       8.958       7.906       6.840       5.756       4.651       3.521       2.368       1.194      2.5651E-03
1
              HEAD IN LAYER   3 AT END OF TIME STEP  66 IN STRESS PERIOD    3
  ---------------------------------------------------------------------------

            1           2           3           4           5           6           7           8           9          10
 ........................................................................................................................
   1    9.998       8.950       7.891       6.818       5.729       4.622       3.495       2.348       1.183      2.5951E-03
   2    9.998       8.952       7.895       6.824       5.737       4.631       3.502       2.353       1.186      2.6009E-03
   3    9.998       8.955       7.901       6.835       5.753       4.649       3.518       2.364       1.191      2.6122E-03
   4    9.998       8.959       7.911       6.851       5.778       4.682       3.543       2.379       1.198      2.6281E-03
   5    9.998       8.963       7.920       6.870       5.815       4.745       3.580       2.398       1.206      2.6448E-03
   6    9.998       8.965       7.925       6.884       5.854       4.887       3.620       2.411       1.210      2.6545E-03
   7    9.998       8.964       7.922       6.873       5.818       4.749       3.583       2.400       1.207      2.6476E-03
   8    9.998       8.961       7.915       6.858       5.785       4.690       3.550       2.384       1.201      2.6340E-03
   9    9.998       8.959       7.908       6.845       5.765       4.661       3.529       2.372       1.195      2.6220E-03
  10    9.998       8.957       7.905       6.838       5.755       4.649       3.519       2.366       1.192      2.6154E-03
1
              HEAD IN LAYER   4 AT END OF TIME STEP  66 IN STRESS PERIOD    3
  ---------------------------------------------------------------------------

            1           2           3           4           5           6           7           8           9          10
 ........................................................................................................................
   1    9.998       8.949       7.890       6.817       5.728       4.621       3.494       2.347       1.182      2.5948E-03
   2    9.998       8.951       7.894       6.823       5.736       4.629       3.501       2.352       1.185      2.6006E-03
   3    9.998       8.954       7.900       6.834       5.752       4.648       3.517       2.362       1.190      2.6119E-03
   4    9.998       8.958       7.910       6.850       5.777       4.681       3.542       2.378       1.197      2.6276E-03
   5    9.998       8.962       7.919       6.869       5.813       4.741       3.578       2.396       1.205      2.6443E-03
   6    9.998       8.964       7.924       6.882       5.850       4.848       3.615       2.409       1.209      2.6540E-03
   7    9.998       8.963       7.921       6.872       5.817       4.744       3.581       2.399       1.206      2.6471E-03
   8    9.998       8.960       7.914       6.856       5.784       4.688       3.549       2.383       1.200      2.6336E-03
   9    9.998       8.958       7.907       6.844       5.763       4.660       3.528       2.371       1.194      2.6216E-03
  10    9.998       8.956       7.904       6.837       5.753       4.648       3.518       2.364       1.191      2.6150E-03
1
              HEAD IN LAYER   5 AT END OF TIME STEP  66 IN STRESS PERIOD    3
  ---------------------------------------------------------------------------

            1           2           3           4           5           6           7           8           9          10
 ........................................................................................................................
   1    9.998       8.949       7.890       6.817       5.728       4.620       3.493       2.346       1.182      2.5937E-03
   2    9.998       8.951       7.893       6.822       5.735       4.629       3.500       2.351       1.184      2.5994E-03
   3    9.998       8.954       7.900       6.834       5.751       4.647       3.516       2.362       1.189      2.6107E-03
   4    9.998       8.958       7.909       6.850       5.776       4.680       3.541       2.377       1.196      2.6264E-03
   5    9.998       8.962       7.918       6.869       5.812       4.738       3.577       2.396       1.204      2.6430E-03
   6    9.998       8.964       7.924       6.881       5.847       4.829       3.613       2.408       1.208      2.6526E-03
   7    9.998       8.963       7.921       6.871       5.816       4.741       3.580       2.398       1.205      2.6458E-03
   8    9.998       8.960       7.914       6.856       5.784       4.687       3.548       2.382       1.199      2.6324E-03
   9    9.998       8.957       7.907       6.843       5.763       4.659       3.527       2.370       1.194      2.6204E-03
  10    9.998       8.956       7.903       6.837       5.753       4.647       3.517       2.364       1.191      2.6139E-03

 HEAD WILL BE SAVED ON UNIT   51 AT END OF TIME STEP   66, STRESS PERIOD    3

 DRAWDOWN WILL BE SAVED ON UNIT   52 AT END OF TIME STEP   66, STRESS PERIOD    3
1
  VOLUMETRIC BUDGET FOR ENTIRE MODEL AT END OF TIME STEP   66, STRESS PERIOD   3
  ------------------------------------------------------------------------------

     CUMULATIVE VOLUMES      L**3       RATES FOR THIS TIME STEP      L**3/T
     ------------------                 ------------------------

           IN:                                      IN:
           ---                                      ---
             STORAGE =         777.7404               STORAGE =           4.7114
       CONSTANT HEAD =           0.0000         CONSTANT HEAD =           0.0000
               WELLS =       13960.0000                 WELLS =          60.0000
     HEAD DEP BOUNDS =      191698.5938       HEAD DEP BOUNDS =        1137.4060

            TOTAL IN =      206436.3281              TOTAL IN =        1202.1174

          OUT:                                     OUT:
          ----                                     ----
             STORAGE =        7461.4624               STORAGE =           0.3873
       CONSTANT HEAD =           0.0000         CONSTANT HEAD =           0.0000
               WELLS =           0.0000                 WELLS =           0.0000
     HEAD DEP BOUNDS =      198969.4062       HEAD DEP BOUNDS =        1201.6815

           TOTAL OUT =      206430.8750             TOTAL OUT =        1202.0688

            IN - OUT =           5.4531              IN - OUT =       4.8584E-02

 PERCENT DISCREPANCY =           0.00     PERCENT DISCREPANCY =           0.00






         TIME SUMMARY AT END OF TIME STEP   66 IN STRESS PERIOD    3
                    SECONDS     MINUTES      HOURS       DAYS        YEARS
                    -----------------------------------------------------------
   TIME STEP LENGTH  86400.      1440.0      24.000      1.0000     2.73785E-03
 STRESS PERIOD TIME 5.70240E+06  95040.      1584.0      66.000     0.18070    
         TOTAL TIME 1.44288E+07 2.40480E+05  4008.0      167.00     0.45722    
1
 
 SOLVING FOR HEAD 

 OUTPUT CONTROL FOR STRESS PERIOD    3   TIME STEP   67
    SAVE HEAD FOR ALL LAYERS
    SAVE DRAWDOWN FOR ALL LAYERS
    SAVE BUDGET
    PRINT HEAD FOR ALL LAYERS
    PRINT BUDGET
 UBDSV1 SAVING "         STORAGE" ON UNIT  53 AT TIME STEP 67, STRESS PERIOD   3
 UBDSV2 SAVING "   CONSTANT HEAD" ON UNIT  53 AT TIME STEP 67, STRESS PERIOD   3
 UBDSV1 SAVING "FLOW RIGHT FACE " ON UNIT  53 AT TIME STEP 67, STRESS PERIOD   3
 UBDSV1 SAVING "FLOW FRONT FACE " ON UNIT  53 AT TIME STEP 67, STRESS PERIOD   3
 UBDSV1 SAVING "FLOW LOWER FACE " ON UNIT  53 AT TIME STEP 67, STRESS PERIOD   3

 SAVING SATURATED THICKNESS AND FLOW TERMS ON UNIT   54 FOR MT3DMS
 BY THE LINK-MT3DMS PACKAGE V7 AT TIME STEP   67, STRESS PERIOD    3

1
              HEAD IN LAYER   1 AT END OF TIME STEP  67 IN STRESS PERIOD    3
  ---------------------------------------------------------------------------

            1           2           3           4           5           6           7           8           9          10
 ........................................................................................................................
   1    9.998       8.953       7.894       6.822       5.733       4.626       3.499       2.352       1.187      1.5483E-03
   2    9.998       8.955       7.898       6.827       5.741       4.634       3.506       2.357       1.190      1.5519E-03
   3    9.998       8.958       7.905       6.839       5.756       4.653       3.522       2.368       1.195      1.5591E-03
   4    9.998       8.962       7.914       6.855       5.782       4.686       3.548       2.384       1.202      1.5689E-03
   5    9.998       8.966       7.923       6.874       5.819       4.753       3.585       2.402       1.210      1.5794E-03
   6    9.998       8.968       7.929       6.887       5.862       4.934       3.629       2.416       1.215      1.5856E-03
   7    9.998       8.967       7.926       6.877       5.823       4.757       3.588       2.405       1.211      1.5812E-03
   8    9.998       8.964       7.918       6.861       5.789       4.694       3.554       2.389       1.205      1.5727E-03
   9    9.998       8.962       7.912       6.849       5.768       4.665       3.533       2.376       1.199      1.5652E-03
  10    9.998       8.960       7.908       6.842       5.758       4.653       3.523       2.370       1.196      1.5611E-03
1
              HEAD IN LAYER   2 AT END OF TIME STEP  67 IN STRESS PERIOD    3
  ---------------------------------------------------------------------------

            1           2           3           4           5           6           7           8           9          10
 ........................................................................................................................
   1    9.998       8.951       7.893       6.820       5.731       4.624       3.497       2.350       1.185      2.5451E-03
   2    9.998       8.953       7.896       6.826       5.739       4.632       3.504       2.355       1.188      2.5508E-03
   3    9.998       8.956       7.903       6.837       5.754       4.651       3.520       2.366       1.193      2.5620E-03
   4    9.998       8.960       7.912       6.853       5.780       4.684       3.545       2.381       1.200      2.5775E-03
   5    9.998       8.964       7.921       6.872       5.817       4.750       3.583       2.400       1.208      2.5940E-03
   6    9.998       8.966       7.927       6.885       5.859       4.955       3.626       2.413       1.212      2.6037E-03
   7    9.998       8.965       7.924       6.875       5.820       4.754       3.586       2.402       1.209      2.5968E-03
   8    9.998       8.963       7.917       6.859       5.787       4.692       3.552       2.386       1.203      2.5834E-03
   9    9.998       8.960       7.910       6.847       5.766       4.663       3.531       2.374       1.197      2.5716E-03
  10    9.998       8.958       7.906       6.840       5.756       4.651       3.521       2.368       1.194      2.5651E-03
1
              HEAD IN LAYER   3 AT END OF TIME STEP  67 IN STRESS PERIOD    3
  ---------------------------------------------------------------------------

            1           2           3           4           5           6           7           8           9          10
 ........................................................................................................................
   1    9.998       8.950       7.891       6.818       5.730       4.622       3.495       2.348       1.183      2.5951E-03
   2    9.998       8.952       7.895       6.824       5.737       4.631       3.502       2.353       1.186      2.6009E-03
   3    9.998       8.955       7.901       6.835       5.753       4.649       3.518       2.364       1.191      2.6122E-03
   4    9.998       8.959       7.911       6.851       5.778       4.682       3.543       2.379       1.198      2.6280E-03
   5    9.998       8.963       7.920       6.870       5.815       4.745       3.580       2.398       1.206      2.6447E-03
   6    9.998       8.965       7.925       6.883       5.854       4.887       3.620       2.411       1.210      2.6544E-03
   7    9.998       8.964       7.922       6.873       5.818       4.748       3.583       2.400       1.207      2.6475E-03
   8    9.998       8.961       7.915       6.857       5.785       4.689       3.550       2.384       1.201      2.6339E-03
   9    9.998       8.959       7.908       6.845       5.764       4.661       3.529       2.372       1.195      2.6220E-03
  10    9.998       8.957       7.905       6.838       5.754       4.649       3.519       2.366       1.192      2.6154E-03
1
              HEAD IN LAYER   4 AT END OF TIME STEP  67 IN STRESS PERIOD    3
  ---------------------------------------------------------------------------

            1           2           3           4           5           6           7           8           9          10
 ........................................................................................................................
   1    9.998       8.949       7.890       6.817       5.728       4.621       3.494       2.347       1.182      2.5948E-03
   2    9.998       8.951       7.894       6.823       5.736       4.629       3.501       2.352       1.185      2.6006E-03
   3    9.998       8.954       7.900       6.834       5.752       4.648       3.517       2.362       1.190      2.6119E-03
   4    9.998       8.958       7.910       6.850       5.777       4.681       3.542       2.378       1.197      2.6275E-03
   5    9.998       8.962       7.919       6.869       5.813       4.740       3.578       2.396       1.205      2.6442E-03
   6    9.998       8.964       7.924       6.882       5.850       4.848       3.615       2.409       1.209      2.6538E-03
   7    9.998       8.963       7.921       6.872       5.817       4.744       3.581       2.399       1.206      2.6470E-03
   8    9.998       8.960       7.914       6.856       5.784       4.688       3.549       2.383       1.200      2.6335E-03
   9    9.998       8.958       7.907       6.844       5.763       4.660       3.527       2.371       1.194      2.6216E-03
  10    9.998       8.956       7.904       6.837       5.753       4.648       3.518       2.364       1.191      2.6150E-03
1
              HEAD IN LAYER   5 AT END OF TIME STEP  67 IN STRESS PERIOD    3
  ---------------------------------------------------------------------------

            1           2           3           4           5           6           7           8           9          10
 ........................................................................................................................
   1    9.998       8.949       7.890       6.817       5.728       4.620       3.493       2.346       1.182      2.5937E-03
   2    9.998       8.951       7.893       6.822       5.735       4.629       3.500       2.351       1.184      2.5994E-03
   3    9.998       8.954       7.900       6.834       5.751       4.647       3.516       2.362       1.189      2.6107E-03
   4    9.998       8.958       7.909       6.850       5.776       4.680       3.541       2.377       1.196      2.6263E-03
   5    9.998       8.962       7.918       6.868       5.812       4.738       3.577       2.395       1.204      2.6429E-03
   6    9.998       8.964       7.924       6.881       5.847       4.829       3.613       2.408       1.208      2.6525E-03
   7    9.998       8.963       7.920       6.871       5.816       4.741       3.580       2.398       1.205      2.6457E-03
   8    9.998       8.960       7.913       6.856       5.784       4.687       3.548       2.382       1.199      2.6323E-03
   9    9.998       8.957       7.907       6.843       5.763       4.659       3.527       2.370       1.194      2.6204E-03
  10    9.998       8.956       7.903       6.837       5.753       4.647       3.517       2.364       1.191      2.6138E-03

 HEAD WILL BE SAVED ON UNIT   51 AT END OF TIME STEP   67, STRESS PERIOD    3

 DRAWDOWN WILL BE SAVED ON UNIT   52 AT END OF TIME STEP   67, STRESS PERIOD    3
1
  VOLUMETRIC BUDGET FOR ENTIRE MODEL AT END OF TIME STEP   67, STRESS PERIOD   3
  ------------------------------------------------------------------------------

     CUMULATIVE VOLUMES      L**3       RATES FOR THIS TIME STEP      L**3/T
     ------------------                 ------------------------

           IN:                                      IN:
           ---                                      ---
             STORAGE =         782.3774               STORAGE =           4.6371
       CONSTANT HEAD =           0.0000         CONSTANT HEAD =           0.0000
               WELLS =       14020.0000                 WELLS =          60.0000
     HEAD DEP BOUNDS =      192836.0156       HEAD DEP BOUNDS =        1137.4182

            TOTAL IN =      207638.3906              TOTAL IN =        1202.0553

          OUT:                                     OUT:
          ----                                     ----
             STORAGE =        7461.8218               STORAGE =           0.3595
       CONSTANT HEAD =           0.0000         CONSTANT HEAD =           0.0000
               WELLS =           0.0000                 WELLS =           0.0000
     HEAD DEP BOUNDS =      200171.0625       HEAD DEP BOUNDS =        1201.6508

           TOTAL OUT =      207632.8906             TOTAL OUT =        1202.0103

            IN - OUT =           5.5000              IN - OUT =       4.5044E-02

 PERCENT DISCREPANCY =           0.00     PERCENT DISCREPANCY =           0.00






         TIME SUMMARY AT END OF TIME STEP   67 IN STRESS PERIOD    3
                    SECONDS     MINUTES      HOURS       DAYS        YEARS
                    -----------------------------------------------------------
   TIME STEP LENGTH  86400.      1440.0      24.000      1.0000     2.73785E-03
 STRESS PERIOD TIME 5.78880E+06  96480.      1608.0      67.000     0.18344    
         TOTAL TIME 1.45152E+07 2.41920E+05  4032.0      168.00     0.45996    
1
 
 SOLVING FOR HEAD 

 OUTPUT CONTROL FOR STRESS PERIOD    3   TIME STEP   68
    SAVE HEAD FOR ALL LAYERS
    SAVE DRAWDOWN FOR ALL LAYERS
    SAVE BUDGET
    PRINT HEAD FOR ALL LAYERS
    PRINT BUDGET
 UBDSV1 SAVING "         STORAGE" ON UNIT  53 AT TIME STEP 68, STRESS PERIOD   3
 UBDSV2 SAVING "   CONSTANT HEAD" ON UNIT  53 AT TIME STEP 68, STRESS PERIOD   3
 UBDSV1 SAVING "FLOW RIGHT FACE " ON UNIT  53 AT TIME STEP 68, STRESS PERIOD   3
 UBDSV1 SAVING "FLOW FRONT FACE " ON UNIT  53 AT TIME STEP 68, STRESS PERIOD   3
 UBDSV1 SAVING "FLOW LOWER FACE " ON UNIT  53 AT TIME STEP 68, STRESS PERIOD   3

 SAVING SATURATED THICKNESS AND FLOW TERMS ON UNIT   54 FOR MT3DMS
 BY THE LINK-MT3DMS PACKAGE V7 AT TIME STEP   68, STRESS PERIOD    3

1
              HEAD IN LAYER   1 AT END OF TIME STEP  68 IN STRESS PERIOD    3
  ---------------------------------------------------------------------------

            1           2           3           4           5           6           7           8           9          10
 ........................................................................................................................
   1    9.998       8.953       7.895       6.822       5.733       4.626       3.499       2.352       1.187      1.5483E-03
   2    9.998       8.955       7.898       6.827       5.741       4.634       3.506       2.357       1.190      1.5519E-03
   3    9.998       8.958       7.905       6.839       5.756       4.653       3.522       2.368       1.195      1.5591E-03
   4    9.998       8.962       7.914       6.855       5.782       4.686       3.547       2.384       1.202      1.5689E-03
   5    9.998       8.966       7.923       6.874       5.819       4.753       3.585       2.402       1.210      1.5794E-03
   6    9.998       8.968       7.929       6.887       5.862       4.934       3.629       2.416       1.214      1.5856E-03
   7    9.998       8.967       7.925       6.877       5.823       4.757       3.588       2.405       1.211      1.5811E-03
   8    9.998       8.964       7.918       6.861       5.789       4.694       3.554       2.389       1.205      1.5726E-03
   9    9.998       8.962       7.912       6.849       5.768       4.665       3.533       2.376       1.199      1.5652E-03
  10    9.998       8.960       7.908       6.842       5.758       4.653       3.523       2.370       1.196      1.5611E-03
1
              HEAD IN LAYER   2 AT END OF TIME STEP  68 IN STRESS PERIOD    3
  ---------------------------------------------------------------------------

            1           2           3           4           5           6           7           8           9          10
 ........................................................................................................................
   1    9.998       8.951       7.893       6.820       5.731       4.624       3.497       2.350       1.185      2.5451E-03
   2    9.998       8.953       7.896       6.826       5.739       4.632       3.504       2.355       1.188      2.5508E-03
   3    9.998       8.956       7.903       6.837       5.754       4.651       3.520       2.366       1.193      2.5619E-03
   4    9.998       8.960       7.912       6.853       5.780       4.684       3.545       2.381       1.200      2.5775E-03
   5    9.998       8.964       7.921       6.872       5.817       4.750       3.583       2.400       1.208      2.5939E-03
   6    9.998       8.966       7.927       6.885       5.859       4.955       3.626       2.413       1.212      2.6035E-03
   7    9.998       8.965       7.924       6.875       5.820       4.754       3.586       2.402       1.209      2.5967E-03
   8    9.998       8.963       7.916       6.859       5.787       4.691       3.552       2.386       1.203      2.5833E-03
   9    9.998       8.960       7.910       6.847       5.766       4.663       3.531       2.374       1.197      2.5716E-03
  10    9.998       8.958       7.906       6.840       5.756       4.651       3.521       2.368       1.194      2.5650E-03
1
              HEAD IN LAYER   3 AT END OF TIME STEP  68 IN STRESS PERIOD    3
  ---------------------------------------------------------------------------

            1           2           3           4           5           6           7           8           9          10
 ........................................................................................................................
   1    9.998       8.950       7.891       6.818       5.730       4.622       3.495       2.348       1.183      2.5951E-03
   2    9.998       8.952       7.895       6.824       5.737       4.631       3.502       2.353       1.186      2.6009E-03
   3    9.998       8.955       7.901       6.835       5.753       4.649       3.518       2.364       1.191      2.6122E-03
   4    9.998       8.959       7.911       6.851       5.778       4.682       3.543       2.379       1.198      2.6279E-03
   5    9.998       8.963       7.920       6.870       5.815       4.745       3.580       2.398       1.206      2.6445E-03
   6    9.998       8.965       7.925       6.883       5.854       4.887       3.620       2.411       1.210      2.6543E-03
   7    9.998       8.964       7.922       6.873       5.818       4.748       3.583       2.400       1.207      2.6474E-03
   8    9.998       8.961       7.915       6.857       5.785       4.689       3.550       2.384       1.201      2.6338E-03
   9    9.998       8.959       7.908       6.845       5.764       4.661       3.529       2.372       1.195      2.6219E-03
  10    9.998       8.957       7.905       6.838       5.754       4.649       3.519       2.366       1.192      2.6153E-03
1
              HEAD IN LAYER   4 AT END OF TIME STEP  68 IN STRESS PERIOD    3
  ---------------------------------------------------------------------------

            1           2           3           4           5           6           7           8           9          10
 ........................................................................................................................
   1    9.998       8.949       7.890       6.817       5.728       4.621       3.494       2.347       1.182      2.5949E-03
   2    9.998       8.951       7.894       6.823       5.736       4.629       3.501       2.352       1.185      2.6006E-03
   3    9.998       8.954       7.900       6.834       5.752       4.648       3.516       2.362       1.190      2.6118E-03
   4    9.998       8.958       7.910       6.850       5.777       4.680       3.542       2.378       1.197      2.6275E-03
   5    9.998       8.962       7.919       6.869       5.813       4.740       3.578       2.396       1.205      2.6440E-03
   6    9.998       8.964       7.924       6.882       5.850       4.847       3.615       2.409       1.209      2.6537E-03
   7    9.998       8.963       7.921       6.872       5.816       4.744       3.581       2.399       1.206      2.6469E-03
   8    9.998       8.960       7.914       6.856       5.784       4.688       3.548       2.383       1.200      2.6334E-03
   9    9.998       8.958       7.907       6.844       5.763       4.660       3.527       2.371       1.194      2.6215E-03
  10    9.998       8.956       7.904       6.837       5.753       4.648       3.517       2.364       1.191      2.6150E-03
1
              HEAD IN LAYER   5 AT END OF TIME STEP  68 IN STRESS PERIOD    3
  ---------------------------------------------------------------------------

            1           2           3           4           5           6           7           8           9          10
 ........................................................................................................................
   1    9.998       8.949       7.890       6.817       5.728       4.621       3.493       2.346       1.182      2.5937E-03
   2    9.998       8.951       7.893       6.822       5.735       4.629       3.500       2.351       1.184      2.5994E-03
   3    9.998       8.954       7.900       6.834       5.751       4.647       3.516       2.362       1.189      2.6106E-03
   4    9.998       8.958       7.909       6.850       5.776       4.680       3.541       2.377       1.196      2.6262E-03
   5    9.998       8.962       7.918       6.868       5.812       4.738       3.577       2.395       1.204      2.6428E-03
   6    9.998       8.964       7.924       6.881       5.847       4.829       3.612       2.408       1.208      2.6524E-03
   7    9.998       8.963       7.920       6.871       5.815       4.741       3.580       2.398       1.205      2.6456E-03
   8    9.998       8.960       7.913       6.856       5.783       4.687       3.548       2.382       1.199      2.6322E-03
   9    9.998       8.957       7.907       6.843       5.763       4.659       3.527       2.370       1.194      2.6203E-03
  10    9.998       8.956       7.903       6.837       5.753       4.647       3.517       2.364       1.191      2.6138E-03

 HEAD WILL BE SAVED ON UNIT   51 AT END OF TIME STEP   68, STRESS PERIOD    3

 DRAWDOWN WILL BE SAVED ON UNIT   52 AT END OF TIME STEP   68, STRESS PERIOD    3
1
  VOLUMETRIC BUDGET FOR ENTIRE MODEL AT END OF TIME STEP   68, STRESS PERIOD   3
  ------------------------------------------------------------------------------

     CUMULATIVE VOLUMES      L**3       RATES FOR THIS TIME STEP      L**3/T
     ------------------                 ------------------------

           IN:                                      IN:
           ---                                      ---
             STORAGE =         786.9395               STORAGE =           4.5621
       CONSTANT HEAD =           0.0000         CONSTANT HEAD =           0.0000
               WELLS =       14080.0000                 WELLS =          60.0000
     HEAD DEP BOUNDS =      193973.4531       HEAD DEP BOUNDS =        1137.4308

            TOTAL IN =      208840.3906              TOTAL IN =        1201.9928

          OUT:                                     OUT:
          ----                                     ----
             STORAGE =        7462.1519               STORAGE =           0.3301
       CONSTANT HEAD =           0.0000         CONSTANT HEAD =           0.0000
               WELLS =           0.0000                 WELLS =           0.0000
     HEAD DEP BOUNDS =      201372.6875       HEAD DEP BOUNDS =        1201.6204

           TOTAL OUT =      208834.8438             TOTAL OUT =        1201.9504

            IN - OUT =           5.5469              IN - OUT =       4.2358E-02

 PERCENT DISCREPANCY =           0.00     PERCENT DISCREPANCY =           0.00






         TIME SUMMARY AT END OF TIME STEP   68 IN STRESS PERIOD    3
                    SECONDS     MINUTES      HOURS       DAYS        YEARS
                    -----------------------------------------------------------
   TIME STEP LENGTH  86400.      1440.0      24.000      1.0000     2.73785E-03
 STRESS PERIOD TIME 5.87520E+06  97920.      1632.0      68.000     0.18617    
         TOTAL TIME 1.46016E+07 2.43360E+05  4056.0      169.00     0.46270    
1
 
 SOLVING FOR HEAD 

 OUTPUT CONTROL FOR STRESS PERIOD    3   TIME STEP   69
    SAVE HEAD FOR ALL LAYERS
    SAVE DRAWDOWN FOR ALL LAYERS
    SAVE BUDGET
    PRINT HEAD FOR ALL LAYERS
    PRINT BUDGET
 UBDSV1 SAVING "         STORAGE" ON UNIT  53 AT TIME STEP 69, STRESS PERIOD   3
 UBDSV2 SAVING "   CONSTANT HEAD" ON UNIT  53 AT TIME STEP 69, STRESS PERIOD   3
 UBDSV1 SAVING "FLOW RIGHT FACE " ON UNIT  53 AT TIME STEP 69, STRESS PERIOD   3
 UBDSV1 SAVING "FLOW FRONT FACE " ON UNIT  53 AT TIME STEP 69, STRESS PERIOD   3
 UBDSV1 SAVING "FLOW LOWER FACE " ON UNIT  53 AT TIME STEP 69, STRESS PERIOD   3

 SAVING SATURATED THICKNESS AND FLOW TERMS ON UNIT   54 FOR MT3DMS
 BY THE LINK-MT3DMS PACKAGE V7 AT TIME STEP   69, STRESS PERIOD    3

1
              HEAD IN LAYER   1 AT END OF TIME STEP  69 IN STRESS PERIOD    3
  ---------------------------------------------------------------------------

            1           2           3           4           5           6           7           8           9          10
 ........................................................................................................................
   1    9.998       8.953       7.895       6.822       5.733       4.626       3.499       2.352       1.187      1.5484E-03
   2    9.998       8.955       7.898       6.828       5.741       4.634       3.506       2.357       1.190      1.5519E-03
   3    9.998       8.958       7.905       6.839       5.756       4.653       3.522       2.368       1.195      1.5591E-03
   4    9.998       8.962       7.914       6.855       5.782       4.686       3.547       2.383       1.202      1.5688E-03
   5    9.998       8.966       7.923       6.874       5.819       4.753       3.585       2.402       1.210      1.5793E-03
   6    9.998       8.968       7.929       6.887       5.862       4.933       3.629       2.416       1.214      1.5855E-03
   7    9.998       8.967       7.925       6.877       5.822       4.757       3.588       2.404       1.211      1.5811E-03
   8    9.998       8.964       7.918       6.861       5.789       4.694       3.554       2.389       1.205      1.5726E-03
   9    9.998       8.962       7.912       6.849       5.768       4.665       3.533       2.376       1.199      1.5651E-03
  10    9.998       8.960       7.908       6.842       5.758       4.653       3.523       2.370       1.196      1.5610E-03
1
              HEAD IN LAYER   2 AT END OF TIME STEP  69 IN STRESS PERIOD    3
  ---------------------------------------------------------------------------

            1           2           3           4           5           6           7           8           9          10
 ........................................................................................................................
   1    9.998       8.951       7.893       6.820       5.731       4.624       3.497       2.350       1.185      2.5451E-03
   2    9.998       8.953       7.896       6.826       5.739       4.632       3.504       2.355       1.188      2.5508E-03
   3    9.998       8.956       7.903       6.837       5.754       4.651       3.520       2.366       1.193      2.5619E-03
   4    9.998       8.960       7.912       6.853       5.780       4.684       3.545       2.381       1.200      2.5774E-03
   5    9.998       8.964       7.921       6.872       5.817       4.750       3.582       2.400       1.208      2.5938E-03
   6    9.998       8.966       7.927       6.885       5.859       4.955       3.625       2.413       1.212      2.6034E-03
   7    9.998       8.965       7.923       6.875       5.820       4.754       3.586       2.402       1.209      2.5966E-03
   8    9.998       8.963       7.916       6.859       5.787       4.691       3.552       2.386       1.203      2.5833E-03
   9    9.998       8.960       7.910       6.847       5.766       4.663       3.531       2.374       1.197      2.5715E-03
  10    9.998       8.958       7.906       6.840       5.756       4.651       3.521       2.368       1.194      2.5650E-03
1
              HEAD IN LAYER   3 AT END OF TIME STEP  69 IN STRESS PERIOD    3
  ---------------------------------------------------------------------------

            1           2           3           4           5           6           7           8           9          10
 ........................................................................................................................
   1    9.998       8.950       7.891       6.818       5.730       4.622       3.495       2.348       1.183      2.5951E-03
   2    9.998       8.952       7.895       6.824       5.737       4.631       3.502       2.353       1.186      2.6009E-03
   3    9.998       8.955       7.901       6.835       5.753       4.649       3.518       2.364       1.191      2.6121E-03
   4    9.998       8.959       7.911       6.851       5.778       4.682       3.543       2.379       1.198      2.6278E-03
   5    9.998       8.963       7.920       6.870       5.815       4.745       3.580       2.398       1.206      2.6444E-03
   6    9.998       8.965       7.925       6.883       5.854       4.887       3.620       2.411       1.210      2.6541E-03
   7    9.998       8.964       7.922       6.873       5.818       4.748       3.583       2.400       1.207      2.6472E-03
   8    9.998       8.961       7.915       6.857       5.785       4.689       3.550       2.384       1.201      2.6338E-03
   9    9.998       8.959       7.908       6.845       5.764       4.661       3.529       2.372       1.195      2.6218E-03
  10    9.998       8.957       7.905       6.838       5.754       4.649       3.519       2.366       1.192      2.6153E-03
1
              HEAD IN LAYER   4 AT END OF TIME STEP  69 IN STRESS PERIOD    3
  ---------------------------------------------------------------------------

            1           2           3           4           5           6           7           8           9          10
 ........................................................................................................................
   1    9.998       8.949       7.890       6.817       5.729       4.621       3.494       2.347       1.182      2.5949E-03
   2    9.998       8.951       7.894       6.823       5.736       4.629       3.501       2.352       1.185      2.6006E-03
   3    9.998       8.954       7.900       6.834       5.752       4.648       3.516       2.362       1.190      2.6118E-03
   4    9.998       8.958       7.910       6.850       5.777       4.680       3.542       2.378       1.197      2.6274E-03
   5    9.998       8.962       7.919       6.869       5.813       4.740       3.578       2.396       1.204      2.6439E-03
   6    9.998       8.964       7.924       6.882       5.850       4.847       3.615       2.409       1.209      2.6536E-03
   7    9.998       8.963       7.921       6.872       5.816       4.744       3.581       2.398       1.206      2.6467E-03
   8    9.998       8.960       7.914       6.856       5.784       4.688       3.548       2.383       1.200      2.6333E-03
   9    9.998       8.958       7.907       6.844       5.763       4.660       3.527       2.371       1.194      2.6215E-03
  10    9.998       8.956       7.904       6.837       5.753       4.648       3.517       2.364       1.191      2.6149E-03
1
              HEAD IN LAYER   5 AT END OF TIME STEP  69 IN STRESS PERIOD    3
  ---------------------------------------------------------------------------

            1           2           3           4           5           6           7           8           9          10
 ........................................................................................................................
   1    9.998       8.949       7.890       6.817       5.728       4.621       3.493       2.346       1.182      2.5937E-03
   2    9.998       8.951       7.893       6.822       5.735       4.629       3.500       2.351       1.184      2.5994E-03
   3    9.998       8.954       7.900       6.834       5.751       4.647       3.516       2.362       1.189      2.6106E-03
   4    9.998       8.958       7.909       6.850       5.776       4.680       3.541       2.377       1.196      2.6262E-03
   5    9.998       8.962       7.918       6.868       5.812       4.738       3.577       2.395       1.204      2.6427E-03
   6    9.998       8.964       7.924       6.881       5.847       4.829       3.612       2.408       1.208      2.6523E-03
   7    9.998       8.963       7.920       6.871       5.815       4.741       3.580       2.398       1.205      2.6455E-03
   8    9.998       8.960       7.913       6.856       5.783       4.687       3.548       2.382       1.199      2.6321E-03
   9    9.998       8.957       7.907       6.843       5.763       4.659       3.527       2.370       1.194      2.6203E-03
  10    9.998       8.956       7.903       6.837       5.753       4.647       3.517       2.364       1.191      2.6137E-03

 HEAD WILL BE SAVED ON UNIT   51 AT END OF TIME STEP   69, STRESS PERIOD    3

 DRAWDOWN WILL BE SAVED ON UNIT   52 AT END OF TIME STEP   69, STRESS PERIOD    3
1
  VOLUMETRIC BUDGET FOR ENTIRE MODEL AT END OF TIME STEP   69, STRESS PERIOD   3
  ------------------------------------------------------------------------------

     CUMULATIVE VOLUMES      L**3       RATES FOR THIS TIME STEP      L**3/T
     ------------------                 ------------------------

           IN:                                      IN:
           ---                                      ---
             STORAGE =         791.4308               STORAGE =           4.4913
       CONSTANT HEAD =           0.0000         CONSTANT HEAD =           0.0000
               WELLS =       14140.0000                 WELLS =          60.0000
     HEAD DEP BOUNDS =      195110.8906       HEAD DEP BOUNDS =        1137.4436

            TOTAL IN =      210042.3281              TOTAL IN =        1201.9349

          OUT:                                     OUT:
          ----                                     ----
             STORAGE =        7462.4487               STORAGE =           0.2969
       CONSTANT HEAD =           0.0000         CONSTANT HEAD =           0.0000
               WELLS =           0.0000                 WELLS =           0.0000
     HEAD DEP BOUNDS =      202574.2812       HEAD DEP BOUNDS =        1201.5913

           TOTAL OUT =      210036.7344             TOTAL OUT =        1201.8883

            IN - OUT =           5.5938              IN - OUT =       4.6631E-02

 PERCENT DISCREPANCY =           0.00     PERCENT DISCREPANCY =           0.00






         TIME SUMMARY AT END OF TIME STEP   69 IN STRESS PERIOD    3
                    SECONDS     MINUTES      HOURS       DAYS        YEARS
                    -----------------------------------------------------------
   TIME STEP LENGTH  86400.      1440.0      24.000      1.0000     2.73785E-03
 STRESS PERIOD TIME 5.96160E+06  99360.      1656.0      69.000     0.18891    
         TOTAL TIME 1.46880E+07 2.44800E+05  4080.0      170.00     0.46543    
1
 
 SOLVING FOR HEAD 

 OUTPUT CONTROL FOR STRESS PERIOD    3   TIME STEP   70
    SAVE HEAD FOR ALL LAYERS
    SAVE DRAWDOWN FOR ALL LAYERS
    SAVE BUDGET
    PRINT HEAD FOR ALL LAYERS
    PRINT BUDGET
 UBDSV1 SAVING "         STORAGE" ON UNIT  53 AT TIME STEP 70, STRESS PERIOD   3
 UBDSV2 SAVING "   CONSTANT HEAD" ON UNIT  53 AT TIME STEP 70, STRESS PERIOD   3
 UBDSV1 SAVING "FLOW RIGHT FACE " ON UNIT  53 AT TIME STEP 70, STRESS PERIOD   3
 UBDSV1 SAVING "FLOW FRONT FACE " ON UNIT  53 AT TIME STEP 70, STRESS PERIOD   3
 UBDSV1 SAVING "FLOW LOWER FACE " ON UNIT  53 AT TIME STEP 70, STRESS PERIOD   3

 SAVING SATURATED THICKNESS AND FLOW TERMS ON UNIT   54 FOR MT3DMS
 BY THE LINK-MT3DMS PACKAGE V7 AT TIME STEP   70, STRESS PERIOD    3

1
              HEAD IN LAYER   1 AT END OF TIME STEP  70 IN STRESS PERIOD    3
  ---------------------------------------------------------------------------

            1           2           3           4           5           6           7           8           9          10
 ........................................................................................................................
   1    9.998       8.953       7.895       6.822       5.733       4.626       3.499       2.352       1.187      1.5484E-03
   2    9.998       8.955       7.898       6.828       5.741       4.634       3.506       2.357       1.190      1.5519E-03
   3    9.998       8.958       7.905       6.839       5.756       4.653       3.522       2.368       1.195      1.5591E-03
   4    9.998       8.962       7.914       6.855       5.782       4.686       3.547       2.383       1.202      1.5688E-03
   5    9.998       8.966       7.923       6.874       5.819       4.753       3.585       2.402       1.210      1.5792E-03
   6    9.998       8.968       7.929       6.887       5.862       4.933       3.629       2.415       1.214      1.5853E-03
   7    9.998       8.967       7.925       6.877       5.822       4.757       3.588       2.404       1.211      1.5810E-03
   8    9.998       8.964       7.918       6.861       5.789       4.694       3.554       2.388       1.205      1.5725E-03
   9    9.998       8.962       7.912       6.848       5.768       4.665       3.533       2.376       1.199      1.5651E-03
  10    9.998       8.960       7.908       6.842       5.758       4.653       3.523       2.370       1.196      1.5610E-03
1
              HEAD IN LAYER   2 AT END OF TIME STEP  70 IN STRESS PERIOD    3
  ---------------------------------------------------------------------------

            1           2           3           4           5           6           7           8           9          10
 ........................................................................................................................
   1    9.998       8.952       7.893       6.820       5.731       4.624       3.497       2.350       1.185      2.5451E-03
   2    9.998       8.953       7.896       6.826       5.739       4.632       3.504       2.355       1.188      2.5508E-03
   3    9.998       8.956       7.903       6.837       5.754       4.651       3.520       2.366       1.193      2.5619E-03
   4    9.998       8.960       7.912       6.853       5.780       4.684       3.545       2.381       1.200      2.5773E-03
   5    9.998       8.964       7.921       6.872       5.817       4.750       3.582       2.400       1.208      2.5937E-03
   6    9.998       8.966       7.927       6.885       5.859       4.955       3.625       2.413       1.212      2.6033E-03
   7    9.998       8.965       7.923       6.875       5.820       4.753       3.585       2.402       1.209      2.5965E-03
   8    9.998       8.963       7.916       6.859       5.787       4.691       3.552       2.386       1.203      2.5832E-03
   9    9.998       8.960       7.910       6.846       5.766       4.663       3.531       2.374       1.197      2.5714E-03
  10    9.998       8.958       7.906       6.840       5.756       4.651       3.521       2.367       1.194      2.5650E-03
1
              HEAD IN LAYER   3 AT END OF TIME STEP  70 IN STRESS PERIOD    3
  ---------------------------------------------------------------------------

            1           2           3           4           5           6           7           8           9          10
 ........................................................................................................................
   1    9.998       8.950       7.891       6.818       5.730       4.622       3.495       2.348       1.183      2.5952E-03
   2    9.998       8.952       7.895       6.824       5.737       4.631       3.502       2.353       1.186      2.6009E-03
   3    9.998       8.955       7.901       6.835       5.753       4.649       3.518       2.364       1.191      2.6121E-03
   4    9.998       8.959       7.911       6.851       5.778       4.682       3.543       2.379       1.198      2.6277E-03
   5    9.998       8.963       7.920       6.870       5.814       4.745       3.580       2.397       1.206      2.6443E-03
   6    9.998       8.965       7.925       6.883       5.854       4.887       3.620       2.411       1.210      2.6540E-03
   7    9.998       8.964       7.922       6.873       5.818       4.748       3.583       2.400       1.207      2.6471E-03
   8    9.998       8.961       7.915       6.857       5.785       4.689       3.550       2.384       1.201      2.6337E-03
   9    9.998       8.959       7.908       6.845       5.764       4.661       3.529       2.372       1.195      2.6218E-03
  10    9.998       8.957       7.905       6.838       5.754       4.649       3.519       2.366       1.192      2.6152E-03
1
              HEAD IN LAYER   4 AT END OF TIME STEP  70 IN STRESS PERIOD    3
  ---------------------------------------------------------------------------

            1           2           3           4           5           6           7           8           9          10
 ........................................................................................................................
   1    9.998       8.949       7.890       6.817       5.729       4.621       3.494       2.347       1.182      2.5949E-03
   2    9.998       8.951       7.894       6.823       5.736       4.629       3.501       2.352       1.185      2.6006E-03
   3    9.998       8.954       7.900       6.834       5.751       4.648       3.516       2.362       1.190      2.6117E-03
   4    9.998       8.958       7.910       6.850       5.777       4.680       3.542       2.378       1.197      2.6273E-03
   5    9.998       8.962       7.919       6.869       5.813       4.740       3.578       2.396       1.204      2.6438E-03
   6    9.998       8.964       7.924       6.882       5.849       4.847       3.615       2.409       1.209      2.6535E-03
   7    9.998       8.963       7.921       6.872       5.816       4.744       3.581       2.398       1.206      2.6466E-03
   8    9.998       8.960       7.914       6.856       5.784       4.688       3.548       2.383       1.200      2.6332E-03
   9    9.998       8.958       7.907       6.844       5.763       4.660       3.527       2.371       1.194      2.6214E-03
  10    9.998       8.956       7.904       6.837       5.753       4.648       3.517       2.364       1.191      2.6149E-03
1
              HEAD IN LAYER   5 AT END OF TIME STEP  70 IN STRESS PERIOD    3
  ---------------------------------------------------------------------------

            1           2           3           4           5           6           7           8           9          10
 ........................................................................................................................
   1    9.998       8.949       7.890       6.817       5.728       4.621       3.493       2.346       1.182      2.5937E-03
   2    9.998       8.951       7.893       6.822       5.735       4.629       3.500       2.351       1.184      2.5994E-03
   3    9.998       8.954       7.900       6.833       5.751       4.647       3.516       2.362       1.189      2.6105E-03
   4    9.998       8.958       7.909       6.850       5.776       4.679       3.541       2.377       1.196      2.6261E-03
   5    9.998       8.962       7.918       6.868       5.812       4.737       3.577       2.395       1.204      2.6426E-03
   6    9.998       8.964       7.924       6.881       5.847       4.829       3.612       2.408       1.208      2.6521E-03
   7    9.998       8.963       7.920       6.871       5.815       4.741       3.580       2.398       1.205      2.6454E-03
   8    9.998       8.960       7.913       6.856       5.783       4.687       3.548       2.382       1.199      2.6320E-03
   9    9.998       8.957       7.907       6.843       5.763       4.659       3.527       2.370       1.194      2.6202E-03
  10    9.998       8.956       7.903       6.837       5.753       4.647       3.517       2.364       1.191      2.6137E-03

 HEAD WILL BE SAVED ON UNIT   51 AT END OF TIME STEP   70, STRESS PERIOD    3

 DRAWDOWN WILL BE SAVED ON UNIT   52 AT END OF TIME STEP   70, STRESS PERIOD    3
1
  VOLUMETRIC BUDGET FOR ENTIRE MODEL AT END OF TIME STEP   70, STRESS PERIOD   3
  ------------------------------------------------------------------------------

     CUMULATIVE VOLUMES      L**3       RATES FOR THIS TIME STEP      L**3/T
     ------------------                 ------------------------

           IN:                                      IN:
           ---                                      ---
             STORAGE =         795.8553               STORAGE =           4.4245
       CONSTANT HEAD =           0.0000         CONSTANT HEAD =           0.0000
               WELLS =       14200.0000                 WELLS =          60.0000
     HEAD DEP BOUNDS =      196248.3438       HEAD DEP BOUNDS =        1137.4567

            TOTAL IN =      211244.2031              TOTAL IN =        1201.8812

          OUT:                                     OUT:
          ----                                     ----
             STORAGE =        7462.7236               STORAGE =           0.2749
       CONSTANT HEAD =           0.0000         CONSTANT HEAD =           0.0000
               WELLS =           0.0000                 WELLS =           0.0000
     HEAD DEP BOUNDS =      203775.8438       HEAD DEP BOUNDS =        1201.5608

           TOTAL OUT =      211238.5625             TOTAL OUT =        1201.8357

            IN - OUT =           5.6406              IN - OUT =       4.5532E-02

 PERCENT DISCREPANCY =           0.00     PERCENT DISCREPANCY =           0.00






         TIME SUMMARY AT END OF TIME STEP   70 IN STRESS PERIOD    3
                    SECONDS     MINUTES      HOURS       DAYS        YEARS
                    -----------------------------------------------------------
   TIME STEP LENGTH  86400.      1440.0      24.000      1.0000     2.73785E-03
 STRESS PERIOD TIME 6.04800E+06 1.00800E+05  1680.0      70.000     0.19165    
         TOTAL TIME 1.47744E+07 2.46240E+05  4104.0      171.00     0.46817    
1
 
 SOLVING FOR HEAD 

 OUTPUT CONTROL FOR STRESS PERIOD    3   TIME STEP   71
    SAVE HEAD FOR ALL LAYERS
    SAVE DRAWDOWN FOR ALL LAYERS
    SAVE BUDGET
    PRINT HEAD FOR ALL LAYERS
    PRINT BUDGET
 UBDSV1 SAVING "         STORAGE" ON UNIT  53 AT TIME STEP 71, STRESS PERIOD   3
 UBDSV2 SAVING "   CONSTANT HEAD" ON UNIT  53 AT TIME STEP 71, STRESS PERIOD   3
 UBDSV1 SAVING "FLOW RIGHT FACE " ON UNIT  53 AT TIME STEP 71, STRESS PERIOD   3
 UBDSV1 SAVING "FLOW FRONT FACE " ON UNIT  53 AT TIME STEP 71, STRESS PERIOD   3
 UBDSV1 SAVING "FLOW LOWER FACE " ON UNIT  53 AT TIME STEP 71, STRESS PERIOD   3

 SAVING SATURATED THICKNESS AND FLOW TERMS ON UNIT   54 FOR MT3DMS
 BY THE LINK-MT3DMS PACKAGE V7 AT TIME STEP   71, STRESS PERIOD    3

1
              HEAD IN LAYER   1 AT END OF TIME STEP  71 IN STRESS PERIOD    3
  ---------------------------------------------------------------------------

            1           2           3           4           5           6           7           8           9          10
 ........................................................................................................................
   1    9.998       8.953       7.895       6.822       5.733       4.626       3.499       2.352       1.187      1.5484E-03
   2    9.998       8.955       7.898       6.828       5.741       4.634       3.506       2.357       1.190      1.5519E-03
   3    9.998       8.958       7.905       6.839       5.756       4.653       3.522       2.368       1.195      1.5590E-03
   4    9.998       8.962       7.914       6.855       5.782       4.686       3.547       2.383       1.202      1.5687E-03
   5    9.998       8.966       7.923       6.874       5.819       4.753       3.585       2.402       1.210      1.5792E-03
   6    9.998       8.968       7.929       6.887       5.861       4.933       3.629       2.415       1.214      1.5852E-03
   7    9.998       8.967       7.925       6.876       5.822       4.756       3.588       2.404       1.211      1.5809E-03
   8    9.998       8.964       7.918       6.861       5.789       4.693       3.554       2.388       1.205      1.5725E-03
   9    9.998       8.962       7.912       6.848       5.768       4.665       3.533       2.376       1.199      1.5651E-03
  10    9.998       8.960       7.908       6.842       5.758       4.653       3.523       2.370       1.196      1.5610E-03
1
              HEAD IN LAYER   2 AT END OF TIME STEP  71 IN STRESS PERIOD    3
  ---------------------------------------------------------------------------

            1           2           3           4           5           6           7           8           9          10
 ........................................................................................................................
   1    9.998       8.952       7.893       6.820       5.731       4.624       3.497       2.350       1.185      2.5452E-03
   2    9.998       8.953       7.896       6.826       5.739       4.632       3.504       2.355       1.188      2.5508E-03
   3    9.998       8.956       7.903       6.837       5.754       4.651       3.520       2.366       1.193      2.5618E-03
   4    9.998       8.960       7.912       6.853       5.780       4.684       3.545       2.381       1.200      2.5772E-03
   5    9.998       8.964       7.921       6.872       5.817       4.750       3.582       2.400       1.208      2.5936E-03
   6    9.998       8.966       7.927       6.885       5.859       4.954       3.625       2.413       1.212      2.6032E-03
   7    9.998       8.965       7.923       6.874       5.820       4.753       3.585       2.402       1.209      2.5964E-03
   8    9.998       8.963       7.916       6.859       5.787       4.691       3.552       2.386       1.203      2.5831E-03
   9    9.998       8.960       7.910       6.846       5.766       4.663       3.530       2.374       1.197      2.5714E-03
  10    9.998       8.958       7.906       6.840       5.756       4.651       3.520       2.367       1.194      2.5649E-03
1
              HEAD IN LAYER   3 AT END OF TIME STEP  71 IN STRESS PERIOD    3
  ---------------------------------------------------------------------------

            1           2           3           4           5           6           7           8           9          10
 ........................................................................................................................
   1    9.998       8.950       7.891       6.819       5.730       4.622       3.495       2.348       1.183      2.5952E-03
   2    9.998       8.952       7.895       6.824       5.737       4.631       3.502       2.353       1.186      2.6009E-03
   3    9.998       8.955       7.901       6.835       5.753       4.649       3.518       2.364       1.191      2.6120E-03
   4    9.998       8.959       7.910       6.851       5.778       4.682       3.543       2.379       1.198      2.6276E-03
   5    9.998       8.963       7.920       6.870       5.814       4.744       3.580       2.397       1.206      2.6442E-03
   6    9.998       8.965       7.925       6.883       5.854       4.887       3.619       2.410       1.210      2.6539E-03
   7    9.998       8.964       7.922       6.873       5.818       4.748       3.583       2.400       1.207      2.6470E-03
   8    9.998       8.961       7.915       6.857       5.785       4.689       3.550       2.384       1.201      2.6336E-03
   9    9.998       8.959       7.908       6.845       5.764       4.661       3.529       2.372       1.195      2.6217E-03
  10    9.998       8.957       7.905       6.838       5.754       4.649       3.519       2.365       1.192      2.6152E-03
1
              HEAD IN LAYER   4 AT END OF TIME STEP  71 IN STRESS PERIOD    3
  ---------------------------------------------------------------------------

            1           2           3           4           5           6           7           8           9          10
 ........................................................................................................................
   1    9.998       8.949       7.890       6.817       5.729       4.621       3.494       2.347       1.182      2.5949E-03
   2    9.998       8.951       7.894       6.823       5.736       4.629       3.501       2.352       1.185      2.6006E-03
   3    9.998       8.954       7.900       6.834       5.751       4.647       3.516       2.362       1.190      2.6117E-03
   4    9.998       8.958       7.909       6.850       5.777       4.680       3.542       2.378       1.197      2.6272E-03
   5    9.998       8.962       7.919       6.869       5.813       4.740       3.578       2.396       1.204      2.6437E-03
   6    9.998       8.964       7.924       6.882       5.849       4.847       3.615       2.409       1.209      2.6533E-03
   7    9.998       8.963       7.921       6.872       5.816       4.743       3.581       2.398       1.206      2.6465E-03
   8    9.998       8.960       7.914       6.856       5.784       4.688       3.548       2.383       1.200      2.6331E-03
   9    9.998       8.958       7.907       6.844       5.763       4.660       3.527       2.370       1.194      2.6213E-03
  10    9.998       8.956       7.904       6.837       5.753       4.648       3.517       2.364       1.191      2.6148E-03
1
              HEAD IN LAYER   5 AT END OF TIME STEP  71 IN STRESS PERIOD    3
  ---------------------------------------------------------------------------

            1           2           3           4           5           6           7           8           9          10
 ........................................................................................................................
   1    9.998       8.949       7.890       6.817       5.728       4.621       3.493       2.346       1.182      2.5938E-03
   2    9.998       8.951       7.893       6.822       5.735       4.629       3.500       2.351       1.184      2.5994E-03
   3    9.998       8.954       7.900       6.833       5.751       4.647       3.516       2.362       1.189      2.6105E-03
   4    9.998       8.958       7.909       6.850       5.776       4.679       3.541       2.377       1.196      2.6260E-03
   5    9.998       8.962       7.918       6.868       5.812       4.737       3.577       2.395       1.204      2.6425E-03
   6    9.998       8.964       7.923       6.881       5.847       4.829       3.612       2.408       1.208      2.6520E-03
   7    9.998       8.963       7.920       6.871       5.815       4.741       3.580       2.397       1.205      2.6453E-03
   8    9.998       8.960       7.913       6.856       5.783       4.687       3.547       2.382       1.199      2.6319E-03
   9    9.998       8.957       7.907       6.843       5.762       4.659       3.527       2.370       1.194      2.6201E-03
  10    9.998       8.956       7.903       6.837       5.753       4.647       3.517       2.364       1.191      2.6136E-03

 HEAD WILL BE SAVED ON UNIT   51 AT END OF TIME STEP   71, STRESS PERIOD    3

 DRAWDOWN WILL BE SAVED ON UNIT   52 AT END OF TIME STEP   71, STRESS PERIOD    3
1
  VOLUMETRIC BUDGET FOR ENTIRE MODEL AT END OF TIME STEP   71, STRESS PERIOD   3
  ------------------------------------------------------------------------------

     CUMULATIVE VOLUMES      L**3       RATES FOR THIS TIME STEP      L**3/T
     ------------------                 ------------------------

           IN:                                      IN:
           ---                                      ---
             STORAGE =         800.2125               STORAGE =           4.3571
       CONSTANT HEAD =           0.0000         CONSTANT HEAD =           0.0000
               WELLS =       14260.0000                 WELLS =          60.0000
     HEAD DEP BOUNDS =      197385.8125       HEAD DEP BOUNDS =        1137.4698

            TOTAL IN =      212446.0312              TOTAL IN =        1201.8269

          OUT:                                     OUT:
          ----                                     ----
             STORAGE =        7462.9717               STORAGE =           0.2478
       CONSTANT HEAD =           0.0000         CONSTANT HEAD =           0.0000
               WELLS =           0.0000                 WELLS =           0.0000
     HEAD DEP BOUNDS =      204977.3750       HEAD DEP BOUNDS =        1201.5317

           TOTAL OUT =      212440.3438             TOTAL OUT =        1201.7795

            IN - OUT =           5.6875              IN - OUT =       4.7363E-02

 PERCENT DISCREPANCY =           0.00     PERCENT DISCREPANCY =           0.00






         TIME SUMMARY AT END OF TIME STEP   71 IN STRESS PERIOD    3
                    SECONDS     MINUTES      HOURS       DAYS        YEARS
                    -----------------------------------------------------------
   TIME STEP LENGTH  86400.      1440.0      24.000      1.0000     2.73785E-03
 STRESS PERIOD TIME 6.13440E+06 1.02240E+05  1704.0      71.000     0.19439    
         TOTAL TIME 1.48608E+07 2.47680E+05  4128.0      172.00     0.47091    
1
 
 SOLVING FOR HEAD 

 OUTPUT CONTROL FOR STRESS PERIOD    3   TIME STEP   72
    SAVE HEAD FOR ALL LAYERS
    SAVE DRAWDOWN FOR ALL LAYERS
    SAVE BUDGET
    PRINT HEAD FOR ALL LAYERS
    PRINT BUDGET
 UBDSV1 SAVING "         STORAGE" ON UNIT  53 AT TIME STEP 72, STRESS PERIOD   3
 UBDSV2 SAVING "   CONSTANT HEAD" ON UNIT  53 AT TIME STEP 72, STRESS PERIOD   3
 UBDSV1 SAVING "FLOW RIGHT FACE " ON UNIT  53 AT TIME STEP 72, STRESS PERIOD   3
 UBDSV1 SAVING "FLOW FRONT FACE " ON UNIT  53 AT TIME STEP 72, STRESS PERIOD   3
 UBDSV1 SAVING "FLOW LOWER FACE " ON UNIT  53 AT TIME STEP 72, STRESS PERIOD   3

 SAVING SATURATED THICKNESS AND FLOW TERMS ON UNIT   54 FOR MT3DMS
 BY THE LINK-MT3DMS PACKAGE V7 AT TIME STEP   72, STRESS PERIOD    3

1
              HEAD IN LAYER   1 AT END OF TIME STEP  72 IN STRESS PERIOD    3
  ---------------------------------------------------------------------------

            1           2           3           4           5           6           7           8           9          10
 ........................................................................................................................
   1    9.998       8.953       7.895       6.822       5.733       4.626       3.499       2.352       1.187      1.5484E-03
   2    9.998       8.955       7.898       6.828       5.741       4.634       3.506       2.357       1.190      1.5519E-03
   3    9.998       8.958       7.905       6.839       5.756       4.653       3.522       2.368       1.195      1.5590E-03
   4    9.998       8.962       7.914       6.855       5.782       4.686       3.547       2.383       1.202      1.5687E-03
   5    9.998       8.966       7.923       6.874       5.819       4.753       3.585       2.402       1.210      1.5791E-03
   6    9.998       8.968       7.928       6.887       5.861       4.933       3.628       2.415       1.214      1.5852E-03
   7    9.998       8.967       7.925       6.876       5.822       4.756       3.588       2.404       1.211      1.5809E-03
   8    9.998       8.964       7.918       6.861       5.789       4.693       3.554       2.388       1.205      1.5724E-03
   9    9.998       8.962       7.912       6.848       5.768       4.665       3.533       2.376       1.199      1.5650E-03
  10    9.998       8.960       7.908       6.842       5.758       4.653       3.523       2.370       1.196      1.5610E-03
1
              HEAD IN LAYER   2 AT END OF TIME STEP  72 IN STRESS PERIOD    3
  ---------------------------------------------------------------------------

            1           2           3           4           5           6           7           8           9          10
 ........................................................................................................................
   1    9.998       8.952       7.893       6.820       5.731       4.624       3.497       2.350       1.185      2.5452E-03
   2    9.998       8.953       7.896       6.826       5.739       4.632       3.504       2.355       1.188      2.5508E-03
   3    9.998       8.956       7.903       6.837       5.754       4.650       3.519       2.366       1.193      2.5618E-03
   4    9.998       8.960       7.912       6.853       5.780       4.684       3.545       2.381       1.200      2.5771E-03
   5    9.998       8.964       7.921       6.871       5.816       4.750       3.582       2.399       1.208      2.5935E-03
   6    9.998       8.966       7.927       6.885       5.859       4.954       3.625       2.413       1.212      2.6030E-03
   7    9.998       8.965       7.923       6.874       5.820       4.753       3.585       2.402       1.209      2.5962E-03
   8    9.998       8.963       7.916       6.859       5.787       4.691       3.551       2.386       1.203      2.5830E-03
   9    9.998       8.960       7.910       6.846       5.766       4.663       3.530       2.374       1.197      2.5713E-03
  10    9.998       8.958       7.906       6.840       5.756       4.650       3.520       2.367       1.194      2.5649E-03
1
              HEAD IN LAYER   3 AT END OF TIME STEP  72 IN STRESS PERIOD    3
  ---------------------------------------------------------------------------

            1           2           3           4           5           6           7           8           9          10
 ........................................................................................................................
   1    9.998       8.950       7.891       6.819       5.730       4.622       3.495       2.348       1.183      2.5952E-03
   2    9.998       8.952       7.895       6.824       5.737       4.631       3.502       2.353       1.186      2.6009E-03
   3    9.998       8.955       7.901       6.835       5.753       4.649       3.518       2.364       1.191      2.6120E-03
   4    9.998       8.959       7.910       6.851       5.778       4.682       3.543       2.379       1.198      2.6276E-03
   5    9.998       8.963       7.920       6.870       5.814       4.744       3.579       2.397       1.206      2.6441E-03
   6    9.998       8.965       7.925       6.883       5.854       4.887       3.619       2.410       1.210      2.6538E-03
   7    9.998       8.964       7.922       6.873       5.818       4.748       3.583       2.400       1.207      2.6469E-03
   8    9.998       8.961       7.915       6.857       5.785       4.689       3.549       2.384       1.201      2.6335E-03
   9    9.998       8.959       7.908       6.845       5.764       4.661       3.528       2.372       1.195      2.6217E-03
  10    9.998       8.957       7.905       6.838       5.754       4.649       3.519       2.365       1.192      2.6151E-03
1
              HEAD IN LAYER   4 AT END OF TIME STEP  72 IN STRESS PERIOD    3
  ---------------------------------------------------------------------------

            1           2           3           4           5           6           7           8           9          10
 ........................................................................................................................
   1    9.998       8.949       7.890       6.818       5.729       4.621       3.494       2.347       1.182      2.5949E-03
   2    9.998       8.951       7.894       6.823       5.736       4.629       3.501       2.352       1.185      2.6006E-03
   3    9.998       8.954       7.900       6.834       5.751       4.647       3.516       2.362       1.190      2.6117E-03
   4    9.998       8.958       7.909       6.850       5.777       4.680       3.541       2.378       1.197      2.6272E-03
   5    9.998       8.962       7.919       6.869       5.813       4.740       3.578       2.396       1.204      2.6436E-03
   6    9.998       8.964       7.924       6.882       5.849       4.847       3.615       2.409       1.209      2.6532E-03
   7    9.998       8.963       7.921       6.872       5.816       4.743       3.581       2.398       1.206      2.6464E-03
   8    9.998       8.960       7.914       6.856       5.784       4.687       3.548       2.383       1.199      2.6331E-03
   9    9.998       8.958       7.907       6.844       5.763       4.659       3.527       2.370       1.194      2.6213E-03
  10    9.998       8.956       7.904       6.837       5.753       4.647       3.517       2.364       1.191      2.6148E-03
1
              HEAD IN LAYER   5 AT END OF TIME STEP  72 IN STRESS PERIOD    3
  ---------------------------------------------------------------------------

            1           2           3           4           5           6           7           8           9          10
 ........................................................................................................................
   1    9.998       8.949       7.890       6.817       5.728       4.621       3.493       2.346       1.182      2.5938E-03
   2    9.998       8.951       7.893       6.822       5.735       4.629       3.500       2.351       1.184      2.5994E-03
   3    9.998       8.954       7.900       6.833       5.751       4.647       3.516       2.362       1.189      2.6105E-03
   4    9.998       8.958       7.909       6.849       5.776       4.679       3.541       2.377       1.196      2.6259E-03
   5    9.998       8.962       7.918       6.868       5.812       4.737       3.577       2.395       1.204      2.6424E-03
   6    9.998       8.964       7.923       6.881       5.847       4.829       3.612       2.408       1.208      2.6519E-03
   7    9.998       8.963       7.920       6.871       5.815       4.741       3.580       2.397       1.205      2.6452E-03
   8    9.998       8.960       7.913       6.855       5.783       4.687       3.547       2.382       1.199      2.6318E-03
   9    9.998       8.957       7.907       6.843       5.762       4.659       3.527       2.370       1.194      2.6201E-03
  10    9.998       8.956       7.903       6.837       5.753       4.647       3.517       2.363       1.191      2.6136E-03

 HEAD WILL BE SAVED ON UNIT   51 AT END OF TIME STEP   72, STRESS PERIOD    3

 DRAWDOWN WILL BE SAVED ON UNIT   52 AT END OF TIME STEP   72, STRESS PERIOD    3
1
  VOLUMETRIC BUDGET FOR ENTIRE MODEL AT END OF TIME STEP   72, STRESS PERIOD   3
  ------------------------------------------------------------------------------

     CUMULATIVE VOLUMES      L**3       RATES FOR THIS TIME STEP      L**3/T
     ------------------                 ------------------------

           IN:                                      IN:
           ---                                      ---
             STORAGE =         804.5084               STORAGE =           4.2960
       CONSTANT HEAD =           0.0000         CONSTANT HEAD =           0.0000
               WELLS =       14320.0000                 WELLS =          60.0000
     HEAD DEP BOUNDS =      198523.2969       HEAD DEP BOUNDS =        1137.4832

            TOTAL IN =      213647.8125              TOTAL IN =        1201.7792

          OUT:                                     OUT:
          ----                                     ----
             STORAGE =        7463.2007               STORAGE =           0.2290
       CONSTANT HEAD =           0.0000         CONSTANT HEAD =           0.0000
               WELLS =           0.0000                 WELLS =           0.0000
     HEAD DEP BOUNDS =      206178.8750       HEAD DEP BOUNDS =        1201.5029

           TOTAL OUT =      213642.0781             TOTAL OUT =        1201.7319

            IN - OUT =           5.7344              IN - OUT =       4.7241E-02

 PERCENT DISCREPANCY =           0.00     PERCENT DISCREPANCY =           0.00






         TIME SUMMARY AT END OF TIME STEP   72 IN STRESS PERIOD    3
                    SECONDS     MINUTES      HOURS       DAYS        YEARS
                    -----------------------------------------------------------
   TIME STEP LENGTH  86400.      1440.0      24.000      1.0000     2.73785E-03
 STRESS PERIOD TIME 6.22080E+06 1.03680E+05  1728.0      72.000     0.19713    
         TOTAL TIME 1.49472E+07 2.49120E+05  4152.0      173.00     0.47365    
1
 
 SOLVING FOR HEAD 

 OUTPUT CONTROL FOR STRESS PERIOD    3   TIME STEP   73
    SAVE HEAD FOR ALL LAYERS
    SAVE DRAWDOWN FOR ALL LAYERS
    SAVE BUDGET
    PRINT HEAD FOR ALL LAYERS
    PRINT BUDGET
 UBDSV1 SAVING "         STORAGE" ON UNIT  53 AT TIME STEP 73, STRESS PERIOD   3
 UBDSV2 SAVING "   CONSTANT HEAD" ON UNIT  53 AT TIME STEP 73, STRESS PERIOD   3
 UBDSV1 SAVING "FLOW RIGHT FACE " ON UNIT  53 AT TIME STEP 73, STRESS PERIOD   3
 UBDSV1 SAVING "FLOW FRONT FACE " ON UNIT  53 AT TIME STEP 73, STRESS PERIOD   3
 UBDSV1 SAVING "FLOW LOWER FACE " ON UNIT  53 AT TIME STEP 73, STRESS PERIOD   3

 SAVING SATURATED THICKNESS AND FLOW TERMS ON UNIT   54 FOR MT3DMS
 BY THE LINK-MT3DMS PACKAGE V7 AT TIME STEP   73, STRESS PERIOD    3

1
              HEAD IN LAYER   1 AT END OF TIME STEP  73 IN STRESS PERIOD    3
  ---------------------------------------------------------------------------

            1           2           3           4           5           6           7           8           9          10
 ........................................................................................................................
   1    9.998       8.953       7.895       6.822       5.733       4.626       3.499       2.352       1.187      1.5484E-03
   2    9.998       8.955       7.898       6.828       5.741       4.634       3.506       2.357       1.190      1.5519E-03
   3    9.998       8.958       7.905       6.839       5.756       4.653       3.522       2.368       1.195      1.5590E-03
   4    9.998       8.962       7.914       6.855       5.782       4.686       3.547       2.383       1.202      1.5686E-03
   5    9.998       8.966       7.923       6.873       5.819       4.753       3.585       2.402       1.210      1.5790E-03
   6    9.998       8.968       7.928       6.887       5.861       4.933       3.628       2.415       1.214      1.5851E-03
   7    9.998       8.967       7.925       6.876       5.822       4.756       3.588       2.404       1.211      1.5808E-03
   8    9.998       8.964       7.918       6.861       5.789       4.693       3.554       2.388       1.205      1.5724E-03
   9    9.998       8.962       7.912       6.848       5.768       4.665       3.533       2.376       1.199      1.5650E-03
  10    9.998       8.960       7.908       6.842       5.758       4.653       3.523       2.370       1.196      1.5609E-03
1
              HEAD IN LAYER   2 AT END OF TIME STEP  73 IN STRESS PERIOD    3
  ---------------------------------------------------------------------------

            1           2           3           4           5           6           7           8           9          10
 ........................................................................................................................
   1    9.998       8.952       7.893       6.820       5.731       4.624       3.497       2.350       1.185      2.5452E-03
   2    9.998       8.953       7.896       6.826       5.739       4.632       3.504       2.355       1.188      2.5508E-03
   3    9.998       8.956       7.903       6.837       5.754       4.650       3.519       2.366       1.193      2.5617E-03
   4    9.998       8.960       7.912       6.853       5.780       4.684       3.545       2.381       1.200      2.5771E-03
   5    9.998       8.964       7.921       6.871       5.816       4.750       3.582       2.399       1.207      2.5934E-03
   6    9.998       8.966       7.926       6.885       5.858       4.954       3.625       2.413       1.212      2.6029E-03
   7    9.998       8.965       7.923       6.874       5.820       4.753       3.585       2.402       1.209      2.5961E-03
   8    9.998       8.963       7.916       6.859       5.787       4.691       3.551       2.386       1.203      2.5829E-03
   9    9.998       8.960       7.910       6.846       5.766       4.663       3.530       2.374       1.197      2.5713E-03
  10    9.998       8.958       7.906       6.840       5.756       4.650       3.520       2.367       1.194      2.5648E-03
1
              HEAD IN LAYER   3 AT END OF TIME STEP  73 IN STRESS PERIOD    3
  ---------------------------------------------------------------------------

            1           2           3           4           5           6           7           8           9          10
 ........................................................................................................................
   1    9.998       8.950       7.891       6.819       5.730       4.622       3.495       2.348       1.183      2.5952E-03
   2    9.998       8.952       7.895       6.824       5.737       4.631       3.502       2.353       1.186      2.6009E-03
   3    9.998       8.955       7.901       6.835       5.753       4.649       3.518       2.364       1.191      2.6120E-03
   4    9.998       8.959       7.910       6.851       5.778       4.682       3.543       2.379       1.198      2.6275E-03
   5    9.998       8.963       7.920       6.870       5.814       4.744       3.579       2.397       1.206      2.6440E-03
   6    9.998       8.965       7.925       6.883       5.853       4.886       3.619       2.410       1.210      2.6537E-03
   7    9.998       8.964       7.922       6.873       5.818       4.748       3.582       2.400       1.207      2.6468E-03
   8    9.998       8.961       7.915       6.857       5.785       4.689       3.549       2.384       1.201      2.6334E-03
   9    9.998       8.959       7.908       6.845       5.764       4.661       3.528       2.372       1.195      2.6216E-03
  10    9.998       8.957       7.905       6.838       5.754       4.649       3.519       2.365       1.192      2.6151E-03
1
              HEAD IN LAYER   4 AT END OF TIME STEP  73 IN STRESS PERIOD    3
  ---------------------------------------------------------------------------

            1           2           3           4           5           6           7           8           9          10
 ........................................................................................................................
   1    9.998       8.949       7.890       6.818       5.729       4.621       3.494       2.347       1.182      2.5949E-03
   2    9.998       8.951       7.894       6.823       5.736       4.629       3.501       2.352       1.185      2.6005E-03
   3    9.998       8.954       7.900       6.834       5.751       4.647       3.516       2.362       1.190      2.6116E-03
   4    9.998       8.958       7.909       6.850       5.777       4.680       3.541       2.378       1.197      2.6271E-03
   5    9.998       8.962       7.919       6.869       5.812       4.740       3.577       2.396       1.204      2.6435E-03
   6    9.998       8.964       7.924       6.882       5.849       4.847       3.614       2.409       1.209      2.6531E-03
   7    9.998       8.963       7.921       6.871       5.816       4.743       3.581       2.398       1.206      2.6463E-03
   8    9.998       8.960       7.914       6.856       5.784       4.687       3.548       2.383       1.199      2.6330E-03
   9    9.998       8.958       7.907       6.844       5.763       4.659       3.527       2.370       1.194      2.6212E-03
  10    9.998       8.956       7.904       6.837       5.753       4.647       3.517       2.364       1.191      2.6147E-03
1
              HEAD IN LAYER   5 AT END OF TIME STEP  73 IN STRESS PERIOD    3
  ---------------------------------------------------------------------------

            1           2           3           4           5           6           7           8           9          10
 ........................................................................................................................
   1    9.998       8.949       7.890       6.817       5.728       4.621       3.493       2.346       1.182      2.5938E-03
   2    9.998       8.951       7.893       6.822       5.735       4.629       3.500       2.351       1.184      2.5994E-03
   3    9.998       8.954       7.900       6.833       5.751       4.647       3.516       2.362       1.189      2.6104E-03
   4    9.998       8.958       7.909       6.849       5.776       4.679       3.541       2.377       1.196      2.6259E-03
   5    9.998       8.961       7.918       6.868       5.812       4.737       3.576       2.395       1.204      2.6423E-03
   6    9.998       8.964       7.923       6.881       5.847       4.829       3.612       2.408       1.208      2.6518E-03
   7    9.998       8.963       7.920       6.871       5.815       4.741       3.580       2.397       1.205      2.6450E-03
   8    9.998       8.960       7.913       6.855       5.783       4.687       3.547       2.382       1.199      2.6317E-03
   9    9.998       8.957       7.907       6.843       5.762       4.659       3.526       2.370       1.194      2.6200E-03
  10    9.998       8.956       7.903       6.837       5.753       4.647       3.517       2.363       1.191      2.6135E-03

 HEAD WILL BE SAVED ON UNIT   51 AT END OF TIME STEP   73, STRESS PERIOD    3

 DRAWDOWN WILL BE SAVED ON UNIT   52 AT END OF TIME STEP   73, STRESS PERIOD    3
1
  VOLUMETRIC BUDGET FOR ENTIRE MODEL AT END OF TIME STEP   73, STRESS PERIOD   3
  ------------------------------------------------------------------------------

     CUMULATIVE VOLUMES      L**3       RATES FOR THIS TIME STEP      L**3/T
     ------------------                 ------------------------

           IN:                                      IN:
           ---                                      ---
             STORAGE =         808.7400               STORAGE =           4.2315
       CONSTANT HEAD =           0.0000         CONSTANT HEAD =           0.0000
               WELLS =       14380.0000                 WELLS =          60.0000
     HEAD DEP BOUNDS =      199660.7969       HEAD DEP BOUNDS =        1137.4968

            TOTAL IN =      214849.5312              TOTAL IN =        1201.7284

          OUT:                                     OUT:
          ----                                     ----
             STORAGE =        7463.4062               STORAGE =           0.2056
       CONSTANT HEAD =           0.0000         CONSTANT HEAD =           0.0000
               WELLS =           0.0000                 WELLS =           0.0000
     HEAD DEP BOUNDS =      207380.3438       HEAD DEP BOUNDS =        1201.4745

           TOTAL OUT =      214843.7500             TOTAL OUT =        1201.6801

            IN - OUT =           5.7812              IN - OUT =       4.8340E-02

 PERCENT DISCREPANCY =           0.00     PERCENT DISCREPANCY =           0.00






         TIME SUMMARY AT END OF TIME STEP   73 IN STRESS PERIOD    3
                    SECONDS     MINUTES      HOURS       DAYS        YEARS
                    -----------------------------------------------------------
   TIME STEP LENGTH  86400.      1440.0      24.000      1.0000     2.73785E-03
 STRESS PERIOD TIME 6.30720E+06 1.05120E+05  1752.0      73.000     0.19986    
         TOTAL TIME 1.50336E+07 2.50560E+05  4176.0      174.00     0.47639    
1
 
 SOLVING FOR HEAD 

 OUTPUT CONTROL FOR STRESS PERIOD    3   TIME STEP   74
    SAVE HEAD FOR ALL LAYERS
    SAVE DRAWDOWN FOR ALL LAYERS
    SAVE BUDGET
    PRINT HEAD FOR ALL LAYERS
    PRINT BUDGET
 UBDSV1 SAVING "         STORAGE" ON UNIT  53 AT TIME STEP 74, STRESS PERIOD   3
 UBDSV2 SAVING "   CONSTANT HEAD" ON UNIT  53 AT TIME STEP 74, STRESS PERIOD   3
 UBDSV1 SAVING "FLOW RIGHT FACE " ON UNIT  53 AT TIME STEP 74, STRESS PERIOD   3
 UBDSV1 SAVING "FLOW FRONT FACE " ON UNIT  53 AT TIME STEP 74, STRESS PERIOD   3
 UBDSV1 SAVING "FLOW LOWER FACE " ON UNIT  53 AT TIME STEP 74, STRESS PERIOD   3

 SAVING SATURATED THICKNESS AND FLOW TERMS ON UNIT   54 FOR MT3DMS
 BY THE LINK-MT3DMS PACKAGE V7 AT TIME STEP   74, STRESS PERIOD    3

1
              HEAD IN LAYER   1 AT END OF TIME STEP  74 IN STRESS PERIOD    3
  ---------------------------------------------------------------------------

            1           2           3           4           5           6           7           8           9          10
 ........................................................................................................................
   1    9.998       8.953       7.895       6.822       5.733       4.626       3.499       2.352       1.187      1.5485E-03
   2    9.998       8.955       7.898       6.828       5.741       4.634       3.506       2.357       1.190      1.5519E-03
   3    9.998       8.958       7.905       6.839       5.756       4.653       3.522       2.368       1.195      1.5590E-03
   4    9.998       8.962       7.914       6.855       5.782       4.686       3.547       2.383       1.202      1.5686E-03
   5    9.998       8.966       7.923       6.873       5.819       4.753       3.584       2.402       1.210      1.5790E-03
   6    9.998       8.968       7.928       6.887       5.861       4.933       3.628       2.415       1.214      1.5850E-03
   7    9.998       8.967       7.925       6.876       5.822       4.756       3.588       2.404       1.211      1.5807E-03
   8    9.998       8.964       7.918       6.861       5.789       4.693       3.554       2.388       1.205      1.5723E-03
   9    9.998       8.962       7.912       6.848       5.768       4.665       3.532       2.376       1.199      1.5650E-03
  10    9.998       8.960       7.908       6.842       5.758       4.652       3.523       2.369       1.196      1.5609E-03
1
              HEAD IN LAYER   2 AT END OF TIME STEP  74 IN STRESS PERIOD    3
  ---------------------------------------------------------------------------

            1           2           3           4           5           6           7           8           9          10
 ........................................................................................................................
   1    9.998       8.952       7.893       6.820       5.731       4.624       3.497       2.350       1.185      2.5452E-03
   2    9.998       8.953       7.896       6.826       5.739       4.632       3.504       2.355       1.188      2.5508E-03
   3    9.998       8.956       7.903       6.837       5.754       4.650       3.519       2.365       1.193      2.5617E-03
   4    9.998       8.960       7.912       6.853       5.779       4.684       3.545       2.381       1.200      2.5770E-03
   5    9.998       8.964       7.921       6.871       5.816       4.749       3.582       2.399       1.207      2.5933E-03
   6    9.998       8.966       7.926       6.885       5.858       4.954       3.625       2.413       1.212      2.6028E-03
   7    9.998       8.965       7.923       6.874       5.820       4.753       3.585       2.402       1.209      2.5960E-03
   8    9.998       8.962       7.916       6.859       5.787       4.691       3.551       2.386       1.203      2.5828E-03
   9    9.998       8.960       7.910       6.846       5.766       4.662       3.530       2.374       1.197      2.5712E-03
  10    9.998       8.958       7.906       6.840       5.756       4.650       3.520       2.367       1.194      2.5648E-03
1
              HEAD IN LAYER   3 AT END OF TIME STEP  74 IN STRESS PERIOD    3
  ---------------------------------------------------------------------------

            1           2           3           4           5           6           7           8           9          10
 ........................................................................................................................
   1    9.998       8.950       7.891       6.819       5.730       4.622       3.495       2.348       1.183      2.5952E-03
   2    9.998       8.952       7.895       6.824       5.737       4.631       3.502       2.353       1.186      2.6009E-03
   3    9.998       8.955       7.901       6.835       5.752       4.649       3.518       2.364       1.191      2.6119E-03
   4    9.998       8.959       7.910       6.851       5.778       4.681       3.543       2.379       1.198      2.6274E-03
   5    9.998       8.963       7.920       6.870       5.814       4.744       3.579       2.397       1.205      2.6439E-03
   6    9.998       8.965       7.925       6.883       5.853       4.886       3.619       2.410       1.210      2.6535E-03
   7    9.998       8.964       7.922       6.872       5.817       4.748       3.582       2.399       1.207      2.6467E-03
   8    9.998       8.961       7.915       6.857       5.785       4.689       3.549       2.384       1.201      2.6333E-03
   9    9.998       8.959       7.908       6.845       5.764       4.661       3.528       2.372       1.195      2.6215E-03
  10    9.998       8.957       7.905       6.838       5.754       4.649       3.518       2.365       1.192      2.6150E-03
1
              HEAD IN LAYER   4 AT END OF TIME STEP  74 IN STRESS PERIOD    3
  ---------------------------------------------------------------------------

            1           2           3           4           5           6           7           8           9          10
 ........................................................................................................................
   1    9.998       8.949       7.890       6.818       5.729       4.621       3.494       2.347       1.182      2.5949E-03
   2    9.998       8.951       7.894       6.823       5.736       4.629       3.501       2.352       1.185      2.6005E-03
   3    9.998       8.954       7.900       6.834       5.751       4.647       3.516       2.362       1.190      2.6116E-03
   4    9.998       8.958       7.909       6.850       5.776       4.680       3.541       2.377       1.197      2.6270E-03
   5    9.998       8.962       7.919       6.868       5.812       4.740       3.577       2.396       1.204      2.6434E-03
   6    9.998       8.964       7.924       6.881       5.849       4.847       3.614       2.408       1.209      2.6530E-03
   7    9.998       8.963       7.921       6.871       5.816       4.743       3.580       2.398       1.205      2.6462E-03
   8    9.998       8.960       7.914       6.856       5.784       4.687       3.548       2.382       1.199      2.6329E-03
   9    9.998       8.958       7.907       6.844       5.763       4.659       3.527       2.370       1.194      2.6212E-03
  10    9.998       8.956       7.904       6.837       5.753       4.647       3.517       2.364       1.191      2.6147E-03
1
              HEAD IN LAYER   5 AT END OF TIME STEP  74 IN STRESS PERIOD    3
  ---------------------------------------------------------------------------

            1           2           3           4           5           6           7           8           9          10
 ........................................................................................................................
   1    9.998       8.949       7.890       6.817       5.728       4.621       3.493       2.346       1.182      2.5938E-03
   2    9.998       8.951       7.893       6.822       5.735       4.629       3.500       2.351       1.184      2.5994E-03
   3    9.998       8.954       7.900       6.833       5.751       4.647       3.516       2.362       1.189      2.6104E-03
   4    9.998       8.958       7.909       6.849       5.776       4.679       3.541       2.377       1.196      2.6258E-03
   5    9.998       8.961       7.918       6.868       5.811       4.737       3.576       2.395       1.204      2.6422E-03
   6    9.998       8.963       7.923       6.881       5.847       4.828       3.612       2.408       1.208      2.6517E-03
   7    9.998       8.963       7.920       6.871       5.815       4.740       3.579       2.397       1.205      2.6449E-03
   8    9.998       8.960       7.913       6.855       5.783       4.686       3.547       2.382       1.199      2.6317E-03
   9    9.998       8.957       7.907       6.843       5.762       4.659       3.526       2.370       1.193      2.6199E-03
  10    9.998       8.956       7.903       6.837       5.752       4.647       3.517       2.363       1.191      2.6135E-03

 HEAD WILL BE SAVED ON UNIT   51 AT END OF TIME STEP   74, STRESS PERIOD    3

 DRAWDOWN WILL BE SAVED ON UNIT   52 AT END OF TIME STEP   74, STRESS PERIOD    3
1
  VOLUMETRIC BUDGET FOR ENTIRE MODEL AT END OF TIME STEP   74, STRESS PERIOD   3
  ------------------------------------------------------------------------------

     CUMULATIVE VOLUMES      L**3       RATES FOR THIS TIME STEP      L**3/T
     ------------------                 ------------------------

           IN:                                      IN:
           ---                                      ---
             STORAGE =         812.9086               STORAGE =           4.1687
       CONSTANT HEAD =           0.0000         CONSTANT HEAD =           0.0000
               WELLS =       14440.0000                 WELLS =          60.0000
     HEAD DEP BOUNDS =      200798.3125       HEAD DEP BOUNDS =        1137.5105

            TOTAL IN =      216051.2188              TOTAL IN =        1201.6792

          OUT:                                     OUT:
          ----                                     ----
             STORAGE =        7463.5918               STORAGE =           0.1855
       CONSTANT HEAD =           0.0000         CONSTANT HEAD =           0.0000
               WELLS =           0.0000                 WELLS =           0.0000
     HEAD DEP BOUNDS =      208581.7969       HEAD DEP BOUNDS =        1201.4467

           TOTAL OUT =      216045.3906             TOTAL OUT =        1201.6321

            IN - OUT =           5.8281              IN - OUT =       4.7119E-02

 PERCENT DISCREPANCY =           0.00     PERCENT DISCREPANCY =           0.00






         TIME SUMMARY AT END OF TIME STEP   74 IN STRESS PERIOD    3
                    SECONDS     MINUTES      HOURS       DAYS        YEARS
                    -----------------------------------------------------------
   TIME STEP LENGTH  86400.      1440.0      24.000      1.0000     2.73785E-03
 STRESS PERIOD TIME 6.39360E+06 1.06560E+05  1776.0      74.000     0.20260    
         TOTAL TIME 1.51200E+07 2.52000E+05  4200.0      175.00     0.47912    
1
 
 SOLVING FOR HEAD 

 OUTPUT CONTROL FOR STRESS PERIOD    3   TIME STEP   75
    SAVE HEAD FOR ALL LAYERS
    SAVE DRAWDOWN FOR ALL LAYERS
    SAVE BUDGET
    PRINT HEAD FOR ALL LAYERS
    PRINT BUDGET
 UBDSV1 SAVING "         STORAGE" ON UNIT  53 AT TIME STEP 75, STRESS PERIOD   3
 UBDSV2 SAVING "   CONSTANT HEAD" ON UNIT  53 AT TIME STEP 75, STRESS PERIOD   3
 UBDSV1 SAVING "FLOW RIGHT FACE " ON UNIT  53 AT TIME STEP 75, STRESS PERIOD   3
 UBDSV1 SAVING "FLOW FRONT FACE " ON UNIT  53 AT TIME STEP 75, STRESS PERIOD   3
 UBDSV1 SAVING "FLOW LOWER FACE " ON UNIT  53 AT TIME STEP 75, STRESS PERIOD   3

 SAVING SATURATED THICKNESS AND FLOW TERMS ON UNIT   54 FOR MT3DMS
 BY THE LINK-MT3DMS PACKAGE V7 AT TIME STEP   75, STRESS PERIOD    3

1
              HEAD IN LAYER   1 AT END OF TIME STEP  75 IN STRESS PERIOD    3
  ---------------------------------------------------------------------------

            1           2           3           4           5           6           7           8           9          10
 ........................................................................................................................
   1    9.998       8.953       7.895       6.822       5.733       4.626       3.499       2.352       1.187      1.5485E-03
   2    9.998       8.955       7.898       6.828       5.741       4.634       3.506       2.357       1.190      1.5519E-03
   3    9.998       8.958       7.905       6.839       5.756       4.652       3.522       2.368       1.195      1.5589E-03
   4    9.998       8.962       7.914       6.855       5.782       4.686       3.547       2.383       1.202      1.5686E-03
   5    9.998       8.966       7.923       6.873       5.818       4.752       3.584       2.402       1.210      1.5789E-03
   6    9.998       8.968       7.928       6.887       5.861       4.933       3.628       2.415       1.214      1.5850E-03
   7    9.998       8.967       7.925       6.876       5.822       4.756       3.587       2.404       1.211      1.5807E-03
   8    9.998       8.964       7.918       6.861       5.789       4.693       3.554       2.388       1.205      1.5723E-03
   9    9.998       8.962       7.912       6.848       5.768       4.665       3.532       2.376       1.199      1.5649E-03
  10    9.998       8.960       7.908       6.842       5.758       4.652       3.522       2.369       1.196      1.5609E-03
1
              HEAD IN LAYER   2 AT END OF TIME STEP  75 IN STRESS PERIOD    3
  ---------------------------------------------------------------------------

            1           2           3           4           5           6           7           8           9          10
 ........................................................................................................................
   1    9.998       8.952       7.893       6.820       5.731       4.624       3.497       2.350       1.185      2.5452E-03
   2    9.998       8.953       7.896       6.826       5.739       4.632       3.504       2.355       1.188      2.5508E-03
   3    9.998       8.956       7.903       6.837       5.754       4.650       3.519       2.365       1.193      2.5617E-03
   4    9.998       8.960       7.912       6.853       5.779       4.683       3.545       2.381       1.200      2.5769E-03
   5    9.998       8.964       7.921       6.871       5.816       4.749       3.582       2.399       1.207      2.5932E-03
   6    9.998       8.966       7.926       6.885       5.858       4.954       3.625       2.412       1.212      2.6027E-03
   7    9.998       8.965       7.923       6.874       5.819       4.753       3.585       2.402       1.209      2.5959E-03
   8    9.998       8.962       7.916       6.859       5.786       4.691       3.551       2.386       1.203      2.5827E-03
   9    9.998       8.960       7.910       6.846       5.766       4.662       3.530       2.374       1.197      2.5711E-03
  10    9.998       8.958       7.906       6.840       5.756       4.650       3.520       2.367       1.194      2.5647E-03
1
              HEAD IN LAYER   3 AT END OF TIME STEP  75 IN STRESS PERIOD    3
  ---------------------------------------------------------------------------

            1           2           3           4           5           6           7           8           9          10
 ........................................................................................................................
   1    9.998       8.950       7.891       6.819       5.730       4.622       3.495       2.348       1.183      2.5952E-03
   2    9.998       8.952       7.895       6.824       5.737       4.631       3.502       2.353       1.186      2.6008E-03
   3    9.998       8.955       7.901       6.835       5.752       4.649       3.517       2.363       1.191      2.6119E-03
   4    9.998       8.959       7.910       6.851       5.778       4.681       3.543       2.379       1.198      2.6274E-03
   5    9.998       8.963       7.920       6.870       5.814       4.744       3.579       2.397       1.205      2.6438E-03
   6    9.998       8.965       7.925       6.883       5.853       4.886       3.619       2.410       1.210      2.6534E-03
   7    9.998       8.964       7.922       6.872       5.817       4.747       3.582       2.399       1.207      2.6466E-03
   8    9.998       8.961       7.915       6.857       5.785       4.689       3.549       2.384       1.201      2.6332E-03
   9    9.998       8.958       7.908       6.845       5.764       4.661       3.528       2.372       1.195      2.6215E-03
  10    9.998       8.957       7.905       6.838       5.754       4.649       3.518       2.365       1.192      2.6150E-03
1
              HEAD IN LAYER   4 AT END OF TIME STEP  75 IN STRESS PERIOD    3
  ---------------------------------------------------------------------------

            1           2           3           4           5           6           7           8           9          10
 ........................................................................................................................
   1    9.998       8.949       7.890       6.818       5.729       4.621       3.494       2.347       1.182      2.5949E-03
   2    9.998       8.951       7.894       6.823       5.736       4.629       3.501       2.352       1.185      2.6005E-03
   3    9.998       8.954       7.900       6.834       5.751       4.647       3.516       2.362       1.190      2.6115E-03
   4    9.998       8.958       7.909       6.850       5.776       4.680       3.541       2.377       1.197      2.6269E-03
   5    9.998       8.962       7.918       6.868       5.812       4.739       3.577       2.396       1.204      2.6433E-03
   6    9.998       8.964       7.924       6.881       5.849       4.847       3.614       2.408       1.209      2.6529E-03
   7    9.998       8.963       7.921       6.871       5.816       4.743       3.580       2.398       1.205      2.6461E-03
   8    9.998       8.960       7.914       6.856       5.783       4.687       3.548       2.382       1.199      2.6328E-03
   9    9.998       8.958       7.907       6.844       5.763       4.659       3.527       2.370       1.194      2.6211E-03
  10    9.998       8.956       7.904       6.837       5.753       4.647       3.517       2.364       1.191      2.6146E-03
1
              HEAD IN LAYER   5 AT END OF TIME STEP  75 IN STRESS PERIOD    3
  ---------------------------------------------------------------------------

            1           2           3           4           5           6           7           8           9          10
 ........................................................................................................................
   1    9.998       8.949       7.890       6.817       5.728       4.621       3.493       2.346       1.182      2.5938E-03
   2    9.998       8.951       7.893       6.822       5.735       4.629       3.500       2.351       1.184      2.5994E-03
   3    9.998       8.954       7.900       6.833       5.751       4.647       3.516       2.362       1.189      2.6104E-03
   4    9.998       8.958       7.909       6.849       5.776       4.679       3.541       2.377       1.196      2.6257E-03
   5    9.998       8.961       7.918       6.868       5.811       4.737       3.576       2.395       1.204      2.6421E-03
   6    9.998       8.963       7.923       6.881       5.846       4.828       3.612       2.407       1.208      2.6516E-03
   7    9.998       8.963       7.920       6.871       5.815       4.740       3.579       2.397       1.205      2.6449E-03
   8    9.998       8.960       7.913       6.855       5.783       4.686       3.547       2.382       1.199      2.6316E-03
   9    9.998       8.957       7.907       6.843       5.762       4.659       3.526       2.370       1.193      2.6199E-03
  10    9.998       8.956       7.903       6.837       5.752       4.647       3.517       2.363       1.191      2.6134E-03

 HEAD WILL BE SAVED ON UNIT   51 AT END OF TIME STEP   75, STRESS PERIOD    3

 DRAWDOWN WILL BE SAVED ON UNIT   52 AT END OF TIME STEP   75, STRESS PERIOD    3
1
  VOLUMETRIC BUDGET FOR ENTIRE MODEL AT END OF TIME STEP   75, STRESS PERIOD   3
  ------------------------------------------------------------------------------

     CUMULATIVE VOLUMES      L**3       RATES FOR THIS TIME STEP      L**3/T
     ------------------                 ------------------------

           IN:                                      IN:
           ---                                      ---
             STORAGE =         817.0180               STORAGE =           4.1094
       CONSTANT HEAD =           0.0000         CONSTANT HEAD =           0.0000
               WELLS =       14500.0000                 WELLS =          60.0000
     HEAD DEP BOUNDS =      201935.8438       HEAD DEP BOUNDS =        1137.5244

            TOTAL IN =      217252.8594              TOTAL IN =        1201.6338

          OUT:                                     OUT:
          ----                                     ----
             STORAGE =        7463.7612               STORAGE =           0.1692
       CONSTANT HEAD =           0.0000         CONSTANT HEAD =           0.0000
               WELLS =           0.0000                 WELLS =           0.0000
     HEAD DEP BOUNDS =      209783.2188       HEAD DEP BOUNDS =        1201.4189

           TOTAL OUT =      217246.9844             TOTAL OUT =        1201.5881

            IN - OUT =           5.8750              IN - OUT =       4.5654E-02

 PERCENT DISCREPANCY =           0.00     PERCENT DISCREPANCY =           0.00






         TIME SUMMARY AT END OF TIME STEP   75 IN STRESS PERIOD    3
                    SECONDS     MINUTES      HOURS       DAYS        YEARS
                    -----------------------------------------------------------
   TIME STEP LENGTH  86400.      1440.0      24.000      1.0000     2.73785E-03
 STRESS PERIOD TIME 6.48000E+06 1.08000E+05  1800.0      75.000     0.20534    
         TOTAL TIME 1.52064E+07 2.53440E+05  4224.0      176.00     0.48186    
1
 
 SOLVING FOR HEAD 

 OUTPUT CONTROL FOR STRESS PERIOD    3   TIME STEP   76
    SAVE HEAD FOR ALL LAYERS
    SAVE DRAWDOWN FOR ALL LAYERS
    SAVE BUDGET
    PRINT HEAD FOR ALL LAYERS
    PRINT BUDGET
 UBDSV1 SAVING "         STORAGE" ON UNIT  53 AT TIME STEP 76, STRESS PERIOD   3
 UBDSV2 SAVING "   CONSTANT HEAD" ON UNIT  53 AT TIME STEP 76, STRESS PERIOD   3
 UBDSV1 SAVING "FLOW RIGHT FACE " ON UNIT  53 AT TIME STEP 76, STRESS PERIOD   3
 UBDSV1 SAVING "FLOW FRONT FACE " ON UNIT  53 AT TIME STEP 76, STRESS PERIOD   3
 UBDSV1 SAVING "FLOW LOWER FACE " ON UNIT  53 AT TIME STEP 76, STRESS PERIOD   3

 SAVING SATURATED THICKNESS AND FLOW TERMS ON UNIT   54 FOR MT3DMS
 BY THE LINK-MT3DMS PACKAGE V7 AT TIME STEP   76, STRESS PERIOD    3

1
              HEAD IN LAYER   1 AT END OF TIME STEP  76 IN STRESS PERIOD    3
  ---------------------------------------------------------------------------

            1           2           3           4           5           6           7           8           9          10
 ........................................................................................................................
   1    9.998       8.953       7.895       6.822       5.733       4.626       3.499       2.352       1.187      1.5485E-03
   2    9.998       8.955       7.898       6.828       5.741       4.634       3.506       2.357       1.190      1.5519E-03
   3    9.998       8.958       7.905       6.839       5.756       4.652       3.521       2.368       1.195      1.5589E-03
   4    9.998       8.962       7.914       6.855       5.781       4.686       3.547       2.383       1.202      1.5685E-03
   5    9.998       8.966       7.923       6.873       5.818       4.752       3.584       2.401       1.210      1.5789E-03
   6    9.998       8.968       7.928       6.886       5.861       4.932       3.628       2.415       1.214      1.5849E-03
   7    9.998       8.967       7.925       6.876       5.822       4.756       3.587       2.404       1.211      1.5805E-03
   8    9.998       8.964       7.918       6.861       5.789       4.693       3.553       2.388       1.205      1.5722E-03
   9    9.998       8.962       7.912       6.848       5.768       4.664       3.532       2.376       1.199      1.5649E-03
  10    9.998       8.960       7.908       6.842       5.758       4.652       3.522       2.369       1.196      1.5609E-03
1
              HEAD IN LAYER   2 AT END OF TIME STEP  76 IN STRESS PERIOD    3
  ---------------------------------------------------------------------------

            1           2           3           4           5           6           7           8           9          10
 ........................................................................................................................
   1    9.998       8.952       7.893       6.820       5.731       4.624       3.497       2.350       1.185      2.5452E-03
   2    9.998       8.953       7.896       6.826       5.739       4.632       3.504       2.355       1.188      2.5507E-03
   3    9.998       8.956       7.903       6.837       5.754       4.650       3.519       2.365       1.193      2.5616E-03
   4    9.998       8.960       7.912       6.853       5.779       4.683       3.545       2.381       1.200      2.5769E-03
   5    9.998       8.964       7.921       6.871       5.816       4.749       3.582       2.399       1.207      2.5931E-03
   6    9.998       8.966       7.926       6.884       5.858       4.954       3.625       2.412       1.212      2.6026E-03
   7    9.998       8.965       7.923       6.874       5.819       4.753       3.585       2.401       1.209      2.5958E-03
   8    9.998       8.962       7.916       6.858       5.786       4.691       3.551       2.386       1.202      2.5827E-03
   9    9.998       8.960       7.910       6.846       5.766       4.662       3.530       2.374       1.197      2.5711E-03
  10    9.998       8.958       7.906       6.840       5.756       4.650       3.520       2.367       1.194      2.5647E-03
1
              HEAD IN LAYER   3 AT END OF TIME STEP  76 IN STRESS PERIOD    3
  ---------------------------------------------------------------------------

            1           2           3           4           5           6           7           8           9          10
 ........................................................................................................................
   1    9.998       8.950       7.891       6.819       5.730       4.622       3.495       2.348       1.183      2.5952E-03
   2    9.998       8.952       7.895       6.824       5.737       4.631       3.502       2.353       1.186      2.6008E-03
   3    9.998       8.955       7.901       6.835       5.752       4.649       3.517       2.363       1.191      2.6119E-03
   4    9.998       8.959       7.910       6.851       5.778       4.681       3.543       2.379       1.198      2.6273E-03
   5    9.998       8.963       7.919       6.869       5.814       4.744       3.579       2.397       1.205      2.6437E-03
   6    9.998       8.965       7.925       6.883       5.853       4.886       3.619       2.410       1.210      2.6533E-03
   7    9.998       8.964       7.922       6.872       5.817       4.747       3.582       2.399       1.207      2.6465E-03
   8    9.998       8.961       7.915       6.857       5.785       4.689       3.549       2.384       1.201      2.6332E-03
   9    9.998       8.958       7.908       6.845       5.764       4.660       3.528       2.372       1.195      2.6214E-03
  10    9.998       8.957       7.905       6.838       5.754       4.648       3.518       2.365       1.192      2.6150E-03
1
              HEAD IN LAYER   4 AT END OF TIME STEP  76 IN STRESS PERIOD    3
  ---------------------------------------------------------------------------

            1           2           3           4           5           6           7           8           9          10
 ........................................................................................................................
   1    9.998       8.949       7.890       6.818       5.729       4.621       3.494       2.347       1.182      2.5949E-03
   2    9.998       8.951       7.894       6.823       5.736       4.629       3.501       2.352       1.185      2.6005E-03
   3    9.998       8.954       7.900       6.834       5.751       4.647       3.516       2.362       1.190      2.6115E-03
   4    9.998       8.958       7.909       6.850       5.776       4.680       3.541       2.377       1.197      2.6269E-03
   5    9.998       8.962       7.918       6.868       5.812       4.739       3.577       2.395       1.204      2.6432E-03
   6    9.998       8.964       7.924       6.881       5.849       4.846       3.614       2.408       1.209      2.6528E-03
   7    9.998       8.963       7.920       6.871       5.816       4.743       3.580       2.398       1.205      2.6460E-03
   8    9.998       8.960       7.914       6.856       5.783       4.687       3.548       2.382       1.199      2.6327E-03
   9    9.998       8.958       7.907       6.844       5.763       4.659       3.527       2.370       1.194      2.6210E-03
  10    9.998       8.956       7.904       6.837       5.753       4.647       3.517       2.364       1.191      2.6146E-03
1
              HEAD IN LAYER   5 AT END OF TIME STEP  76 IN STRESS PERIOD    3
  ---------------------------------------------------------------------------

            1           2           3           4           5           6           7           8           9          10
 ........................................................................................................................
   1    9.998       8.949       7.890       6.817       5.728       4.621       3.493       2.346       1.182      2.5938E-03
   2    9.998       8.951       7.893       6.822       5.735       4.629       3.500       2.351       1.184      2.5994E-03
   3    9.998       8.954       7.900       6.833       5.751       4.647       3.516       2.362       1.189      2.6103E-03
   4    9.998       8.958       7.909       6.849       5.776       4.679       3.540       2.377       1.196      2.6257E-03
   5    9.998       8.961       7.918       6.868       5.811       4.737       3.576       2.395       1.204      2.6420E-03
   6    9.998       8.963       7.923       6.881       5.846       4.828       3.611       2.407       1.208      2.6515E-03
   7    9.998       8.962       7.920       6.871       5.815       4.740       3.579       2.397       1.205      2.6448E-03
   8    9.998       8.960       7.913       6.855       5.783       4.686       3.547       2.382       1.199      2.6315E-03
   9    9.998       8.957       7.907       6.843       5.762       4.659       3.526       2.370       1.193      2.6198E-03
  10    9.998       8.956       7.903       6.837       5.752       4.647       3.516       2.363       1.190      2.6134E-03

 HEAD WILL BE SAVED ON UNIT   51 AT END OF TIME STEP   76, STRESS PERIOD    3

 DRAWDOWN WILL BE SAVED ON UNIT   52 AT END OF TIME STEP   76, STRESS PERIOD    3
1
  VOLUMETRIC BUDGET FOR ENTIRE MODEL AT END OF TIME STEP   76, STRESS PERIOD   3
  ------------------------------------------------------------------------------

     CUMULATIVE VOLUMES      L**3       RATES FOR THIS TIME STEP      L**3/T
     ------------------                 ------------------------

           IN:                                      IN:
           ---                                      ---
             STORAGE =         821.0674               STORAGE =           4.0494
       CONSTANT HEAD =           0.0000         CONSTANT HEAD =           0.0000
               WELLS =       14560.0000                 WELLS =          60.0000
     HEAD DEP BOUNDS =      203073.3750       HEAD DEP BOUNDS =        1137.5385

            TOTAL IN =      218454.4375              TOTAL IN =        1201.5879

          OUT:                                     OUT:
          ----                                     ----
             STORAGE =        7463.9106               STORAGE =           0.1496
       CONSTANT HEAD =           0.0000         CONSTANT HEAD =           0.0000
               WELLS =           0.0000                 WELLS =           0.0000
     HEAD DEP BOUNDS =      210984.6094       HEAD DEP BOUNDS =        1201.3909

           TOTAL OUT =      218448.5156             TOTAL OUT =        1201.5405

            IN - OUT =           5.9219              IN - OUT =       4.7363E-02

 PERCENT DISCREPANCY =           0.00     PERCENT DISCREPANCY =           0.00






         TIME SUMMARY AT END OF TIME STEP   76 IN STRESS PERIOD    3
                    SECONDS     MINUTES      HOURS       DAYS        YEARS
                    -----------------------------------------------------------
   TIME STEP LENGTH  86400.      1440.0      24.000      1.0000     2.73785E-03
 STRESS PERIOD TIME 6.56640E+06 1.09440E+05  1824.0      76.000     0.20808    
         TOTAL TIME 1.52928E+07 2.54880E+05  4248.0      177.00     0.48460    
1
 
 SOLVING FOR HEAD 

 OUTPUT CONTROL FOR STRESS PERIOD    3   TIME STEP   77
    SAVE HEAD FOR ALL LAYERS
    SAVE DRAWDOWN FOR ALL LAYERS
    SAVE BUDGET
    PRINT HEAD FOR ALL LAYERS
    PRINT BUDGET
 UBDSV1 SAVING "         STORAGE" ON UNIT  53 AT TIME STEP 77, STRESS PERIOD   3
 UBDSV2 SAVING "   CONSTANT HEAD" ON UNIT  53 AT TIME STEP 77, STRESS PERIOD   3
 UBDSV1 SAVING "FLOW RIGHT FACE " ON UNIT  53 AT TIME STEP 77, STRESS PERIOD   3
 UBDSV1 SAVING "FLOW FRONT FACE " ON UNIT  53 AT TIME STEP 77, STRESS PERIOD   3
 UBDSV1 SAVING "FLOW LOWER FACE " ON UNIT  53 AT TIME STEP 77, STRESS PERIOD   3

 SAVING SATURATED THICKNESS AND FLOW TERMS ON UNIT   54 FOR MT3DMS
 BY THE LINK-MT3DMS PACKAGE V7 AT TIME STEP   77, STRESS PERIOD    3

1
              HEAD IN LAYER   1 AT END OF TIME STEP  77 IN STRESS PERIOD    3
  ---------------------------------------------------------------------------

            1           2           3           4           5           6           7           8           9          10
 ........................................................................................................................
   1    9.998       8.953       7.895       6.822       5.733       4.626       3.499       2.352       1.187      1.5485E-03
   2    9.998       8.955       7.898       6.828       5.741       4.634       3.506       2.357       1.190      1.5519E-03
   3    9.998       8.958       7.905       6.839       5.756       4.652       3.521       2.368       1.195      1.5589E-03
   4    9.998       8.962       7.914       6.854       5.781       4.686       3.547       2.383       1.202      1.5685E-03
   5    9.998       8.966       7.923       6.873       5.818       4.752       3.584       2.401       1.209      1.5788E-03
   6    9.998       8.968       7.928       6.886       5.861       4.932       3.628       2.415       1.214      1.5848E-03
   7    9.998       8.967       7.925       6.876       5.822       4.756       3.587       2.404       1.211      1.5805E-03
   8    9.998       8.964       7.918       6.860       5.788       4.693       3.553       2.388       1.205      1.5722E-03
   9    9.998       8.962       7.912       6.848       5.768       4.664       3.532       2.376       1.199      1.5649E-03
  10    9.998       8.960       7.908       6.842       5.758       4.652       3.522       2.369       1.196      1.5608E-03
1
              HEAD IN LAYER   2 AT END OF TIME STEP  77 IN STRESS PERIOD    3
  ---------------------------------------------------------------------------

            1           2           3           4           5           6           7           8           9          10
 ........................................................................................................................
   1    9.998       8.952       7.893       6.820       5.731       4.624       3.497       2.350       1.185      2.5452E-03
   2    9.998       8.953       7.896       6.826       5.739       4.632       3.504       2.355       1.188      2.5507E-03
   3    9.998       8.956       7.903       6.837       5.754       4.650       3.519       2.365       1.193      2.5616E-03
   4    9.998       8.960       7.912       6.852       5.779       4.683       3.544       2.381       1.200      2.5768E-03
   5    9.998       8.964       7.921       6.871       5.816       4.749       3.582       2.399       1.207      2.5930E-03
   6    9.998       8.966       7.926       6.884       5.858       4.954       3.624       2.412       1.212      2.6025E-03
   7    9.998       8.965       7.923       6.874       5.819       4.753       3.585       2.401       1.209      2.5957E-03
   8    9.998       8.962       7.916       6.858       5.786       4.691       3.551       2.386       1.202      2.5826E-03
   9    9.998       8.960       7.910       6.846       5.766       4.662       3.530       2.374       1.197      2.5710E-03
  10    9.998       8.958       7.906       6.840       5.756       4.650       3.520       2.367       1.194      2.5646E-03
1
              HEAD IN LAYER   3 AT END OF TIME STEP  77 IN STRESS PERIOD    3
  ---------------------------------------------------------------------------

            1           2           3           4           5           6           7           8           9          10
 ........................................................................................................................
   1    9.998       8.950       7.891       6.819       5.730       4.622       3.495       2.348       1.183      2.5952E-03
   2    9.998       8.952       7.895       6.824       5.737       4.631       3.502       2.353       1.186      2.6008E-03
   3    9.998       8.955       7.901       6.835       5.752       4.648       3.517       2.363       1.191      2.6118E-03
   4    9.998       8.959       7.910       6.851       5.777       4.681       3.542       2.379       1.198      2.6272E-03
   5    9.998       8.963       7.919       6.869       5.814       4.744       3.579       2.397       1.205      2.6436E-03
   6    9.998       8.965       7.925       6.883       5.853       4.886       3.619       2.410       1.210      2.6532E-03
   7    9.998       8.964       7.921       6.872       5.817       4.747       3.582       2.399       1.207      2.6464E-03
   8    9.998       8.961       7.915       6.857       5.785       4.688       3.549       2.384       1.201      2.6331E-03
   9    9.998       8.958       7.908       6.845       5.764       4.660       3.528       2.372       1.195      2.6214E-03
  10    9.998       8.957       7.905       6.838       5.754       4.648       3.518       2.365       1.192      2.6149E-03
1
              HEAD IN LAYER   4 AT END OF TIME STEP  77 IN STRESS PERIOD    3
  ---------------------------------------------------------------------------

            1           2           3           4           5           6           7           8           9          10
 ........................................................................................................................
   1    9.998       8.949       7.890       6.818       5.729       4.621       3.494       2.347       1.182      2.5949E-03
   2    9.998       8.951       7.894       6.823       5.736       4.629       3.501       2.352       1.185      2.6005E-03
   3    9.998       8.954       7.900       6.834       5.751       4.647       3.516       2.362       1.190      2.6115E-03
   4    9.998       8.958       7.909       6.850       5.776       4.680       3.541       2.377       1.197      2.6268E-03
   5    9.998       8.962       7.918       6.868       5.812       4.739       3.577       2.395       1.204      2.6432E-03
   6    9.998       8.964       7.924       6.881       5.849       4.846       3.614       2.408       1.208      2.6527E-03
   7    9.998       8.963       7.920       6.871       5.815       4.743       3.580       2.398       1.205      2.6459E-03
   8    9.998       8.960       7.914       6.856       5.783       4.687       3.548       2.382       1.199      2.6327E-03
   9    9.998       8.958       7.907       6.843       5.763       4.659       3.527       2.370       1.194      2.6210E-03
  10    9.998       8.956       7.904       6.837       5.753       4.647       3.517       2.364       1.191      2.6145E-03
1
              HEAD IN LAYER   5 AT END OF TIME STEP  77 IN STRESS PERIOD    3
  ---------------------------------------------------------------------------

            1           2           3           4           5           6           7           8           9          10
 ........................................................................................................................
   1    9.998       8.949       7.890       6.817       5.728       4.621       3.493       2.346       1.182      2.5938E-03
   2    9.998       8.951       7.893       6.822       5.735       4.629       3.500       2.351       1.184      2.5993E-03
   3    9.998       8.954       7.900       6.833       5.751       4.647       3.516       2.361       1.189      2.6103E-03
   4    9.998       8.958       7.909       6.849       5.776       4.679       3.540       2.377       1.196      2.6256E-03
   5    9.998       8.961       7.918       6.868       5.811       4.737       3.576       2.395       1.203      2.6419E-03
   6    9.998       8.963       7.923       6.880       5.846       4.828       3.611       2.407       1.208      2.6514E-03
   7    9.998       8.962       7.920       6.871       5.815       4.740       3.579       2.397       1.205      2.6447E-03
   8    9.998       8.960       7.913       6.855       5.783       4.686       3.547       2.382       1.199      2.6314E-03
   9    9.998       8.957       7.907       6.843       5.762       4.659       3.526       2.370       1.193      2.6198E-03
  10    9.998       8.956       7.903       6.837       5.752       4.647       3.516       2.363       1.190      2.6134E-03

 HEAD WILL BE SAVED ON UNIT   51 AT END OF TIME STEP   77, STRESS PERIOD    3

 DRAWDOWN WILL BE SAVED ON UNIT   52 AT END OF TIME STEP   77, STRESS PERIOD    3
1
  VOLUMETRIC BUDGET FOR ENTIRE MODEL AT END OF TIME STEP   77, STRESS PERIOD   3
  ------------------------------------------------------------------------------

     CUMULATIVE VOLUMES      L**3       RATES FOR THIS TIME STEP      L**3/T
     ------------------                 ------------------------

           IN:                                      IN:
           ---                                      ---
             STORAGE =         825.0630               STORAGE =           3.9956
       CONSTANT HEAD =           0.0000         CONSTANT HEAD =           0.0000
               WELLS =       14620.0000                 WELLS =          60.0000
     HEAD DEP BOUNDS =      204210.9219       HEAD DEP BOUNDS =        1137.5525

            TOTAL IN =      219655.9844              TOTAL IN =        1201.5481

          OUT:                                     OUT:
          ----                                     ----
             STORAGE =        7464.0479               STORAGE =           0.1370
       CONSTANT HEAD =           0.0000         CONSTANT HEAD =           0.0000
               WELLS =           0.0000                 WELLS =           0.0000
     HEAD DEP BOUNDS =      212185.9688       HEAD DEP BOUNDS =        1201.3641

           TOTAL OUT =      219650.0156             TOTAL OUT =        1201.5012

            IN - OUT =           5.9688              IN - OUT =       4.6875E-02

 PERCENT DISCREPANCY =           0.00     PERCENT DISCREPANCY =           0.00






         TIME SUMMARY AT END OF TIME STEP   77 IN STRESS PERIOD    3
                    SECONDS     MINUTES      HOURS       DAYS        YEARS
                    -----------------------------------------------------------
   TIME STEP LENGTH  86400.      1440.0      24.000      1.0000     2.73785E-03
 STRESS PERIOD TIME 6.65280E+06 1.10880E+05  1848.0      77.000     0.21081    
         TOTAL TIME 1.53792E+07 2.56320E+05  4272.0      178.00     0.48734    
1
 
 SOLVING FOR HEAD 

 OUTPUT CONTROL FOR STRESS PERIOD    3   TIME STEP   78
    SAVE HEAD FOR ALL LAYERS
    SAVE DRAWDOWN FOR ALL LAYERS
    SAVE BUDGET
    PRINT HEAD FOR ALL LAYERS
    PRINT BUDGET
 UBDSV1 SAVING "         STORAGE" ON UNIT  53 AT TIME STEP 78, STRESS PERIOD   3
 UBDSV2 SAVING "   CONSTANT HEAD" ON UNIT  53 AT TIME STEP 78, STRESS PERIOD   3
 UBDSV1 SAVING "FLOW RIGHT FACE " ON UNIT  53 AT TIME STEP 78, STRESS PERIOD   3
 UBDSV1 SAVING "FLOW FRONT FACE " ON UNIT  53 AT TIME STEP 78, STRESS PERIOD   3
 UBDSV1 SAVING "FLOW LOWER FACE " ON UNIT  53 AT TIME STEP 78, STRESS PERIOD   3

 SAVING SATURATED THICKNESS AND FLOW TERMS ON UNIT   54 FOR MT3DMS
 BY THE LINK-MT3DMS PACKAGE V7 AT TIME STEP   78, STRESS PERIOD    3

1
              HEAD IN LAYER   1 AT END OF TIME STEP  78 IN STRESS PERIOD    3
  ---------------------------------------------------------------------------

            1           2           3           4           5           6           7           8           9          10
 ........................................................................................................................
   1    9.998       8.953       7.895       6.822       5.733       4.626       3.499       2.352       1.187      1.5485E-03
   2    9.998       8.955       7.898       6.828       5.741       4.634       3.506       2.357       1.190      1.5519E-03
   3    9.998       8.958       7.905       6.838       5.756       4.652       3.521       2.368       1.195      1.5589E-03
   4    9.998       8.962       7.914       6.854       5.781       4.685       3.547       2.383       1.202      1.5684E-03
   5    9.998       8.966       7.923       6.873       5.818       4.752       3.584       2.401       1.209      1.5787E-03
   6    9.998       8.968       7.928       6.886       5.861       4.932       3.628       2.415       1.214      1.5848E-03
   7    9.998       8.967       7.925       6.876       5.821       4.756       3.587       2.404       1.211      1.5804E-03
   8    9.998       8.964       7.918       6.860       5.788       4.693       3.553       2.388       1.205      1.5721E-03
   9    9.998       8.962       7.912       6.848       5.768       4.664       3.532       2.376       1.199      1.5648E-03
  10    9.998       8.960       7.908       6.842       5.758       4.652       3.522       2.369       1.196      1.5608E-03
1
              HEAD IN LAYER   2 AT END OF TIME STEP  78 IN STRESS PERIOD    3
  ---------------------------------------------------------------------------

            1           2           3           4           5           6           7           8           9          10
 ........................................................................................................................
   1    9.998       8.952       7.893       6.820       5.731       4.624       3.497       2.350       1.185      2.5452E-03
   2    9.998       8.953       7.896       6.826       5.739       4.632       3.504       2.355       1.188      2.5507E-03
   3    9.998       8.956       7.903       6.837       5.754       4.650       3.519       2.365       1.193      2.5616E-03
   4    9.998       8.960       7.912       6.852       5.779       4.683       3.544       2.381       1.200      2.5767E-03
   5    9.998       8.964       7.921       6.871       5.816       4.749       3.581       2.399       1.207      2.5929E-03
   6    9.998       8.966       7.926       6.884       5.858       4.954       3.624       2.412       1.212      2.6024E-03
   7    9.998       8.965       7.923       6.874       5.819       4.752       3.585       2.401       1.209      2.5956E-03
   8    9.998       8.962       7.916       6.858       5.786       4.691       3.551       2.386       1.202      2.5825E-03
   9    9.998       8.960       7.910       6.846       5.766       4.662       3.530       2.373       1.197      2.5710E-03
  10    9.998       8.958       7.906       6.840       5.756       4.650       3.520       2.367       1.194      2.5646E-03
1
              HEAD IN LAYER   3 AT END OF TIME STEP  78 IN STRESS PERIOD    3
  ---------------------------------------------------------------------------

            1           2           3           4           5           6           7           8           9          10
 ........................................................................................................................
   1    9.998       8.950       7.891       6.819       5.730       4.622       3.495       2.348       1.183      2.5952E-03
   2    9.998       8.952       7.895       6.824       5.737       4.631       3.502       2.353       1.186      2.6008E-03
   3    9.998       8.955       7.901       6.835       5.752       4.648       3.517       2.363       1.191      2.6118E-03
   4    9.998       8.959       7.910       6.851       5.777       4.681       3.542       2.379       1.198      2.6272E-03
   5    9.998       8.963       7.919       6.869       5.814       4.744       3.579       2.397       1.205      2.6435E-03
   6    9.998       8.965       7.925       6.882       5.853       4.886       3.619       2.410       1.210      2.6531E-03
   7    9.998       8.964       7.921       6.872       5.817       4.747       3.582       2.399       1.207      2.6463E-03
   8    9.998       8.961       7.915       6.857       5.784       4.688       3.549       2.384       1.201      2.6330E-03
   9    9.998       8.958       7.908       6.845       5.764       4.660       3.528       2.371       1.195      2.6213E-03
  10    9.998       8.957       7.905       6.838       5.754       4.648       3.518       2.365       1.192      2.6149E-03
1
              HEAD IN LAYER   4 AT END OF TIME STEP  78 IN STRESS PERIOD    3
  ---------------------------------------------------------------------------

            1           2           3           4           5           6           7           8           9          10
 ........................................................................................................................
   1    9.998       8.949       7.890       6.818       5.729       4.621       3.494       2.347       1.182      2.5949E-03
   2    9.998       8.951       7.894       6.823       5.736       4.629       3.501       2.352       1.185      2.6005E-03
   3    9.998       8.954       7.900       6.834       5.751       4.647       3.516       2.362       1.190      2.6114E-03
   4    9.998       8.958       7.909       6.850       5.776       4.680       3.541       2.377       1.197      2.6267E-03
   5    9.998       8.962       7.918       6.868       5.812       4.739       3.577       2.395       1.204      2.6431E-03
   6    9.998       8.964       7.924       6.881       5.849       4.846       3.614       2.408       1.208      2.6526E-03
   7    9.998       8.963       7.920       6.871       5.815       4.743       3.580       2.398       1.205      2.6458E-03
   8    9.998       8.960       7.914       6.856       5.783       4.687       3.548       2.382       1.199      2.6326E-03
   9    9.998       8.958       7.907       6.843       5.763       4.659       3.527       2.370       1.194      2.6209E-03
  10    9.998       8.956       7.904       6.837       5.753       4.647       3.517       2.364       1.191      2.6145E-03
1
              HEAD IN LAYER   5 AT END OF TIME STEP  78 IN STRESS PERIOD    3
  ---------------------------------------------------------------------------

            1           2           3           4           5           6           7           8           9          10
 ........................................................................................................................
   1    9.998       8.949       7.890       6.817       5.728       4.621       3.493       2.346       1.182      2.5938E-03
   2    9.998       8.951       7.893       6.822       5.735       4.629       3.500       2.351       1.184      2.5993E-03
   3    9.998       8.954       7.900       6.833       5.751       4.647       3.515       2.361       1.189      2.6102E-03
   4    9.998       8.958       7.909       6.849       5.776       4.679       3.540       2.377       1.196      2.6255E-03
   5    9.998       8.961       7.918       6.868       5.811       4.737       3.576       2.395       1.203      2.6418E-03
   6    9.998       8.963       7.923       6.880       5.846       4.828       3.611       2.407       1.208      2.6513E-03
   7    9.998       8.962       7.920       6.870       5.814       4.740       3.579       2.397       1.205      2.6446E-03
   8    9.998       8.960       7.913       6.855       5.783       4.686       3.547       2.382       1.199      2.6313E-03
   9    9.998       8.957       7.907       6.843       5.762       4.658       3.526       2.369       1.193      2.6197E-03
  10    9.998       8.956       7.903       6.836       5.752       4.647       3.516       2.363       1.190      2.6133E-03

 HEAD WILL BE SAVED ON UNIT   51 AT END OF TIME STEP   78, STRESS PERIOD    3

 DRAWDOWN WILL BE SAVED ON UNIT   52 AT END OF TIME STEP   78, STRESS PERIOD    3
1
  VOLUMETRIC BUDGET FOR ENTIRE MODEL AT END OF TIME STEP   78, STRESS PERIOD   3
  ------------------------------------------------------------------------------

     CUMULATIVE VOLUMES      L**3       RATES FOR THIS TIME STEP      L**3/T
     ------------------                 ------------------------

           IN:                                      IN:
           ---                                      ---
             STORAGE =         829.0002               STORAGE =           3.9372
       CONSTANT HEAD =           0.0000         CONSTANT HEAD =           0.0000
               WELLS =       14680.0000                 WELLS =          60.0000
     HEAD DEP BOUNDS =      205348.4844       HEAD DEP BOUNDS =        1137.5667

            TOTAL IN =      220857.4844              TOTAL IN =        1201.5038

          OUT:                                     OUT:
          ----                                     ----
             STORAGE =        7464.1675               STORAGE =           0.1198
       CONSTANT HEAD =           0.0000         CONSTANT HEAD =           0.0000
               WELLS =           0.0000                 WELLS =           0.0000
     HEAD DEP BOUNDS =      213387.3125       HEAD DEP BOUNDS =        1201.3368

           TOTAL OUT =      220851.4844             TOTAL OUT =        1201.4567

            IN - OUT =           6.0000              IN - OUT =       4.7119E-02

 PERCENT DISCREPANCY =           0.00     PERCENT DISCREPANCY =           0.00






         TIME SUMMARY AT END OF TIME STEP   78 IN STRESS PERIOD    3
                    SECONDS     MINUTES      HOURS       DAYS        YEARS
                    -----------------------------------------------------------
   TIME STEP LENGTH  86400.      1440.0      24.000      1.0000     2.73785E-03
 STRESS PERIOD TIME 6.73920E+06 1.12320E+05  1872.0      78.000     0.21355    
         TOTAL TIME 1.54656E+07 2.57760E+05  4296.0      179.00     0.49008    
1
 
 SOLVING FOR HEAD 

 OUTPUT CONTROL FOR STRESS PERIOD    3   TIME STEP   79
    SAVE HEAD FOR ALL LAYERS
    SAVE DRAWDOWN FOR ALL LAYERS
    SAVE BUDGET
    PRINT HEAD FOR ALL LAYERS
    PRINT BUDGET
 UBDSV1 SAVING "         STORAGE" ON UNIT  53 AT TIME STEP 79, STRESS PERIOD   3
 UBDSV2 SAVING "   CONSTANT HEAD" ON UNIT  53 AT TIME STEP 79, STRESS PERIOD   3
 UBDSV1 SAVING "FLOW RIGHT FACE " ON UNIT  53 AT TIME STEP 79, STRESS PERIOD   3
 UBDSV1 SAVING "FLOW FRONT FACE " ON UNIT  53 AT TIME STEP 79, STRESS PERIOD   3
 UBDSV1 SAVING "FLOW LOWER FACE " ON UNIT  53 AT TIME STEP 79, STRESS PERIOD   3

 SAVING SATURATED THICKNESS AND FLOW TERMS ON UNIT   54 FOR MT3DMS
 BY THE LINK-MT3DMS PACKAGE V7 AT TIME STEP   79, STRESS PERIOD    3

1
              HEAD IN LAYER   1 AT END OF TIME STEP  79 IN STRESS PERIOD    3
  ---------------------------------------------------------------------------

            1           2           3           4           5           6           7           8           9          10
 ........................................................................................................................
   1    9.998       8.953       7.895       6.822       5.733       4.626       3.499       2.352       1.187      1.5485E-03
   2    9.998       8.955       7.898       6.828       5.741       4.634       3.506       2.357       1.190      1.5519E-03
   3    9.998       8.958       7.905       6.838       5.756       4.652       3.521       2.367       1.195      1.5589E-03
   4    9.998       8.962       7.914       6.854       5.781       4.685       3.547       2.383       1.202      1.5684E-03
   5    9.998       8.966       7.923       6.873       5.818       4.752       3.584       2.401       1.209      1.5786E-03
   6    9.998       8.968       7.928       6.886       5.860       4.932       3.628       2.415       1.214      1.5847E-03
   7    9.998       8.967       7.925       6.876       5.821       4.755       3.587       2.404       1.211      1.5804E-03
   8    9.998       8.964       7.918       6.860       5.788       4.693       3.553       2.388       1.205      1.5720E-03
   9    9.998       8.962       7.912       6.848       5.768       4.664       3.532       2.376       1.199      1.5648E-03
  10    9.998       8.960       7.908       6.842       5.758       4.652       3.522       2.369       1.196      1.5608E-03
1
              HEAD IN LAYER   2 AT END OF TIME STEP  79 IN STRESS PERIOD    3
  ---------------------------------------------------------------------------

            1           2           3           4           5           6           7           8           9          10
 ........................................................................................................................
   1    9.998       8.952       7.893       6.820       5.731       4.624       3.497       2.350       1.185      2.5452E-03
   2    9.998       8.953       7.896       6.826       5.739       4.632       3.504       2.355       1.188      2.5507E-03
   3    9.998       8.956       7.903       6.836       5.754       4.650       3.519       2.365       1.193      2.5615E-03
   4    9.998       8.960       7.912       6.852       5.779       4.683       3.544       2.381       1.200      2.5767E-03
   5    9.998       8.964       7.921       6.871       5.816       4.749       3.581       2.399       1.207      2.5928E-03
   6    9.998       8.966       7.926       6.884       5.858       4.953       3.624       2.412       1.212      2.6023E-03
   7    9.998       8.965       7.923       6.874       5.819       4.752       3.584       2.401       1.208      2.5955E-03
   8    9.998       8.962       7.916       6.858       5.786       4.690       3.551       2.386       1.202      2.5824E-03
   9    9.998       8.960       7.910       6.846       5.765       4.662       3.530       2.373       1.197      2.5709E-03
  10    9.998       8.958       7.906       6.840       5.756       4.650       3.520       2.367       1.194      2.5646E-03
1
              HEAD IN LAYER   3 AT END OF TIME STEP  79 IN STRESS PERIOD    3
  ---------------------------------------------------------------------------

            1           2           3           4           5           6           7           8           9          10
 ........................................................................................................................
   1    9.998       8.950       7.891       6.819       5.730       4.622       3.495       2.348       1.183      2.5952E-03
   2    9.998       8.952       7.895       6.824       5.737       4.631       3.502       2.353       1.186      2.6008E-03
   3    9.998       8.955       7.901       6.835       5.752       4.648       3.517       2.363       1.191      2.6117E-03
   4    9.998       8.959       7.910       6.851       5.777       4.681       3.542       2.379       1.198      2.6271E-03
   5    9.998       8.963       7.919       6.869       5.814       4.744       3.579       2.397       1.205      2.6434E-03
   6    9.998       8.965       7.925       6.882       5.853       4.886       3.619       2.410       1.210      2.6530E-03
   7    9.998       8.964       7.921       6.872       5.817       4.747       3.582       2.399       1.207      2.6462E-03
   8    9.998       8.961       7.914       6.857       5.784       4.688       3.549       2.383       1.200      2.6329E-03
   9    9.998       8.958       7.908       6.844       5.764       4.660       3.528       2.371       1.195      2.6212E-03
  10    9.998       8.957       7.905       6.838       5.754       4.648       3.518       2.365       1.192      2.6148E-03
1
              HEAD IN LAYER   4 AT END OF TIME STEP  79 IN STRESS PERIOD    3
  ---------------------------------------------------------------------------

            1           2           3           4           5           6           7           8           9          10
 ........................................................................................................................
   1    9.998       8.949       7.890       6.818       5.729       4.621       3.494       2.347       1.182      2.5949E-03
   2    9.998       8.951       7.894       6.823       5.736       4.629       3.501       2.352       1.185      2.6005E-03
   3    9.998       8.954       7.900       6.834       5.751       4.647       3.516       2.362       1.190      2.6114E-03
   4    9.998       8.958       7.909       6.850       5.776       4.680       3.541       2.377       1.197      2.6267E-03
   5    9.998       8.962       7.918       6.868       5.812       4.739       3.577       2.395       1.204      2.6430E-03
   6    9.998       8.964       7.924       6.881       5.848       4.846       3.614       2.408       1.208      2.6525E-03
   7    9.998       8.963       7.920       6.871       5.815       4.742       3.580       2.398       1.205      2.6457E-03
   8    9.998       8.960       7.913       6.856       5.783       4.687       3.547       2.382       1.199      2.6325E-03
   9    9.998       8.958       7.907       6.843       5.763       4.659       3.527       2.370       1.194      2.6209E-03
  10    9.998       8.956       7.904       6.837       5.753       4.647       3.517       2.364       1.191      2.6144E-03
1
              HEAD IN LAYER   5 AT END OF TIME STEP  79 IN STRESS PERIOD    3
  ---------------------------------------------------------------------------

            1           2           3           4           5           6           7           8           9          10
 ........................................................................................................................
   1    9.998       8.949       7.890       6.817       5.728       4.621       3.493       2.346       1.182      2.5938E-03
   2    9.998       8.951       7.893       6.822       5.735       4.629       3.500       2.351       1.184      2.5993E-03
   3    9.998       8.954       7.900       6.833       5.751       4.647       3.515       2.361       1.189      2.6102E-03
   4    9.998       8.958       7.909       6.849       5.776       4.679       3.540       2.377       1.196      2.6255E-03
   5    9.998       8.961       7.918       6.868       5.811       4.737       3.576       2.395       1.203      2.6417E-03
   6    9.998       8.963       7.923       6.880       5.846       4.828       3.611       2.407       1.208      2.6512E-03
   7    9.998       8.962       7.920       6.870       5.814       4.740       3.579       2.397       1.205      2.6445E-03
   8    9.998       8.960       7.913       6.855       5.783       4.686       3.547       2.381       1.199      2.6313E-03
   9    9.998       8.957       7.907       6.843       5.762       4.658       3.526       2.369       1.193      2.6197E-03
  10    9.998       8.956       7.903       6.836       5.752       4.646       3.516       2.363       1.190      2.6133E-03

 HEAD WILL BE SAVED ON UNIT   51 AT END OF TIME STEP   79, STRESS PERIOD    3

 DRAWDOWN WILL BE SAVED ON UNIT   52 AT END OF TIME STEP   79, STRESS PERIOD    3
1
  VOLUMETRIC BUDGET FOR ENTIRE MODEL AT END OF TIME STEP   79, STRESS PERIOD   3
  ------------------------------------------------------------------------------

     CUMULATIVE VOLUMES      L**3       RATES FOR THIS TIME STEP      L**3/T
     ------------------                 ------------------------

           IN:                                      IN:
           ---                                      ---
             STORAGE =         832.8773               STORAGE =           3.8771
       CONSTANT HEAD =           0.0000         CONSTANT HEAD =           0.0000
               WELLS =       14740.0000                 WELLS =          60.0000
     HEAD DEP BOUNDS =      206486.0625       HEAD DEP BOUNDS =        1137.5809

            TOTAL IN =      222058.9375              TOTAL IN =        1201.4580

          OUT:                                     OUT:
          ----                                     ----
             STORAGE =        7464.2754               STORAGE =           0.1078
       CONSTANT HEAD =           0.0000         CONSTANT HEAD =           0.0000
               WELLS =           0.0000                 WELLS =           0.0000
     HEAD DEP BOUNDS =      214588.6250       HEAD DEP BOUNDS =        1201.3098

           TOTAL OUT =      222052.9062             TOTAL OUT =        1201.4176

            IN - OUT =           6.0312              IN - OUT =       4.0405E-02

 PERCENT DISCREPANCY =           0.00     PERCENT DISCREPANCY =           0.00






         TIME SUMMARY AT END OF TIME STEP   79 IN STRESS PERIOD    3
                    SECONDS     MINUTES      HOURS       DAYS        YEARS
                    -----------------------------------------------------------
   TIME STEP LENGTH  86400.      1440.0      24.000      1.0000     2.73785E-03
 STRESS PERIOD TIME 6.82560E+06 1.13760E+05  1896.0      79.000     0.21629    
         TOTAL TIME 1.55520E+07 2.59200E+05  4320.0      180.00     0.49281    
1
 
 SOLVING FOR HEAD 

 OUTPUT CONTROL FOR STRESS PERIOD    3   TIME STEP   80
    SAVE HEAD FOR ALL LAYERS
    SAVE DRAWDOWN FOR ALL LAYERS
    SAVE BUDGET
    PRINT HEAD FOR ALL LAYERS
    PRINT BUDGET
 UBDSV1 SAVING "         STORAGE" ON UNIT  53 AT TIME STEP 80, STRESS PERIOD   3
 UBDSV2 SAVING "   CONSTANT HEAD" ON UNIT  53 AT TIME STEP 80, STRESS PERIOD   3
 UBDSV1 SAVING "FLOW RIGHT FACE " ON UNIT  53 AT TIME STEP 80, STRESS PERIOD   3
 UBDSV1 SAVING "FLOW FRONT FACE " ON UNIT  53 AT TIME STEP 80, STRESS PERIOD   3
 UBDSV1 SAVING "FLOW LOWER FACE " ON UNIT  53 AT TIME STEP 80, STRESS PERIOD   3

 SAVING SATURATED THICKNESS AND FLOW TERMS ON UNIT   54 FOR MT3DMS
 BY THE LINK-MT3DMS PACKAGE V7 AT TIME STEP   80, STRESS PERIOD    3

1
              HEAD IN LAYER   1 AT END OF TIME STEP  80 IN STRESS PERIOD    3
  ---------------------------------------------------------------------------

            1           2           3           4           5           6           7           8           9          10
 ........................................................................................................................
   1    9.998       8.953       7.895       6.822       5.733       4.626       3.499       2.352       1.187      1.5485E-03
   2    9.998       8.955       7.898       6.828       5.741       4.634       3.506       2.357       1.190      1.5519E-03
   3    9.998       8.958       7.905       6.838       5.756       4.652       3.521       2.367       1.195      1.5588E-03
   4    9.998       8.962       7.914       6.854       5.781       4.685       3.547       2.383       1.202      1.5684E-03
   5    9.998       8.966       7.923       6.873       5.818       4.752       3.584       2.401       1.209      1.5786E-03
   6    9.998       8.968       7.928       6.886       5.860       4.932       3.627       2.415       1.214      1.5847E-03
   7    9.998       8.967       7.925       6.876       5.821       4.755       3.587       2.403       1.211      1.5803E-03
   8    9.998       8.964       7.918       6.860       5.788       4.693       3.553       2.388       1.204      1.5719E-03
   9    9.998       8.962       7.912       6.848       5.767       4.664       3.532       2.376       1.199      1.5648E-03
  10    9.998       8.960       7.908       6.842       5.758       4.652       3.522       2.369       1.196      1.5608E-03
1
              HEAD IN LAYER   2 AT END OF TIME STEP  80 IN STRESS PERIOD    3
  ---------------------------------------------------------------------------

            1           2           3           4           5           6           7           8           9          10
 ........................................................................................................................
   1    9.998       8.952       7.893       6.820       5.731       4.624       3.497       2.350       1.185      2.5452E-03
   2    9.998       8.953       7.896       6.826       5.739       4.632       3.504       2.355       1.188      2.5507E-03
   3    9.998       8.956       7.903       6.836       5.754       4.650       3.519       2.365       1.193      2.5615E-03
   4    9.998       8.960       7.912       6.852       5.779       4.683       3.544       2.381       1.200      2.5766E-03
   5    9.998       8.964       7.921       6.871       5.816       4.749       3.581       2.399       1.207      2.5927E-03
   6    9.998       8.966       7.926       6.884       5.858       4.953       3.624       2.412       1.212      2.6022E-03
   7    9.998       8.965       7.923       6.874       5.819       4.752       3.584       2.401       1.208      2.5954E-03
   8    9.998       8.962       7.916       6.858       5.786       4.690       3.551       2.385       1.202      2.5823E-03
   9    9.998       8.960       7.910       6.846       5.765       4.662       3.530       2.373       1.197      2.5708E-03
  10    9.998       8.958       7.906       6.840       5.756       4.650       3.520       2.367       1.194      2.5645E-03
1
              HEAD IN LAYER   3 AT END OF TIME STEP  80 IN STRESS PERIOD    3
  ---------------------------------------------------------------------------

            1           2           3           4           5           6           7           8           9          10
 ........................................................................................................................
   1    9.998       8.950       7.891       6.819       5.730       4.622       3.495       2.348       1.183      2.5952E-03
   2    9.998       8.952       7.895       6.824       5.737       4.630       3.502       2.353       1.186      2.6008E-03
   3    9.998       8.955       7.901       6.835       5.752       4.648       3.517       2.363       1.191      2.6117E-03
   4    9.998       8.959       7.910       6.851       5.777       4.681       3.542       2.379       1.198      2.6270E-03
   5    9.998       8.963       7.919       6.869       5.813       4.744       3.579       2.397       1.205      2.6434E-03
   6    9.998       8.965       7.925       6.882       5.853       4.886       3.618       2.410       1.210      2.6529E-03
   7    9.998       8.964       7.921       6.872       5.817       4.747       3.582       2.399       1.206      2.6461E-03
   8    9.998       8.961       7.914       6.857       5.784       4.688       3.549       2.383       1.200      2.6328E-03
   9    9.998       8.958       7.908       6.844       5.764       4.660       3.528       2.371       1.195      2.6212E-03
  10    9.998       8.957       7.905       6.838       5.754       4.648       3.518       2.365       1.192      2.6148E-03
1
              HEAD IN LAYER   4 AT END OF TIME STEP  80 IN STRESS PERIOD    3
  ---------------------------------------------------------------------------

            1           2           3           4           5           6           7           8           9          10
 ........................................................................................................................
   1    9.998       8.949       7.890       6.818       5.729       4.621       3.494       2.347       1.182      2.5949E-03
   2    9.998       8.951       7.894       6.823       5.736       4.629       3.501       2.352       1.185      2.6005E-03
   3    9.998       8.954       7.900       6.834       5.751       4.647       3.516       2.362       1.190      2.6114E-03
   4    9.998       8.958       7.909       6.850       5.776       4.679       3.541       2.377       1.197      2.6266E-03
   5    9.998       8.962       7.918       6.868       5.812       4.739       3.577       2.395       1.204      2.6429E-03
   6    9.998       8.964       7.923       6.881       5.848       4.846       3.614       2.408       1.208      2.6524E-03
   7    9.998       8.963       7.920       6.871       5.815       4.742       3.580       2.398       1.205      2.6457E-03
   8    9.998       8.960       7.913       6.856       5.783       4.687       3.547       2.382       1.199      2.6324E-03
   9    9.998       8.958       7.907       6.843       5.763       4.659       3.527       2.370       1.194      2.6208E-03
  10    9.998       8.956       7.904       6.837       5.753       4.647       3.517       2.364       1.191      2.6144E-03
1
              HEAD IN LAYER   5 AT END OF TIME STEP  80 IN STRESS PERIOD    3
  ---------------------------------------------------------------------------

            1           2           3           4           5           6           7           8           9          10
 ........................................................................................................................
   1    9.998       8.949       7.890       6.817       5.728       4.621       3.493       2.346       1.182      2.5938E-03
   2    9.998       8.951       7.893       6.822       5.735       4.629       3.500       2.351       1.184      2.5993E-03
   3    9.998       8.954       7.900       6.833       5.751       4.647       3.515       2.361       1.189      2.6102E-03
   4    9.998       8.958       7.909       6.849       5.775       4.679       3.540       2.376       1.196      2.6254E-03
   5    9.998       8.961       7.918       6.867       5.811       4.736       3.576       2.394       1.203      2.6416E-03
   6    9.998       8.963       7.923       6.880       5.846       4.828       3.611       2.407       1.208      2.6511E-03
   7    9.998       8.962       7.920       6.870       5.814       4.740       3.579       2.397       1.205      2.6444E-03
   8    9.998       8.960       7.913       6.855       5.782       4.686       3.547       2.381       1.199      2.6312E-03
   9    9.998       8.957       7.907       6.843       5.762       4.658       3.526       2.369       1.193      2.6196E-03
  10    9.998       8.956       7.903       6.836       5.752       4.646       3.516       2.363       1.190      2.6132E-03

 HEAD WILL BE SAVED ON UNIT   51 AT END OF TIME STEP   80, STRESS PERIOD    3

 DRAWDOWN WILL BE SAVED ON UNIT   52 AT END OF TIME STEP   80, STRESS PERIOD    3
1
  VOLUMETRIC BUDGET FOR ENTIRE MODEL AT END OF TIME STEP   80, STRESS PERIOD   3
  ------------------------------------------------------------------------------

     CUMULATIVE VOLUMES      L**3       RATES FOR THIS TIME STEP      L**3/T
     ------------------                 ------------------------

           IN:                                      IN:
           ---                                      ---
             STORAGE =         836.6985               STORAGE =           3.8212
       CONSTANT HEAD =           0.0000         CONSTANT HEAD =           0.0000
               WELLS =       14800.0000                 WELLS =          60.0000
     HEAD DEP BOUNDS =      207623.6562       HEAD DEP BOUNDS =        1137.5951

            TOTAL IN =      223260.3594              TOTAL IN =        1201.4163

          OUT:                                     OUT:
          ----                                     ----
             STORAGE =        7464.3682               STORAGE =       9.2997E-02
       CONSTANT HEAD =           0.0000         CONSTANT HEAD =           0.0000
               WELLS =           0.0000                 WELLS =           0.0000
     HEAD DEP BOUNDS =      215789.9062       HEAD DEP BOUNDS =        1201.2843

           TOTAL OUT =      223254.2812             TOTAL OUT =        1201.3773

            IN - OUT =           6.0781              IN - OUT =       3.8940E-02

 PERCENT DISCREPANCY =           0.00     PERCENT DISCREPANCY =           0.00






         TIME SUMMARY AT END OF TIME STEP   80 IN STRESS PERIOD    3
                    SECONDS     MINUTES      HOURS       DAYS        YEARS
                    -----------------------------------------------------------
   TIME STEP LENGTH  86400.      1440.0      24.000      1.0000     2.73785E-03
 STRESS PERIOD TIME 6.91200E+06 1.15200E+05  1920.0      80.000     0.21903    
         TOTAL TIME 1.56384E+07 2.60640E+05  4344.0      181.00     0.49555    
1
 
 SOLVING FOR HEAD 

 OUTPUT CONTROL FOR STRESS PERIOD    3   TIME STEP   81
    SAVE HEAD FOR ALL LAYERS
    SAVE DRAWDOWN FOR ALL LAYERS
    SAVE BUDGET
    PRINT HEAD FOR ALL LAYERS
    PRINT BUDGET
 UBDSV1 SAVING "         STORAGE" ON UNIT  53 AT TIME STEP 81, STRESS PERIOD   3
 UBDSV2 SAVING "   CONSTANT HEAD" ON UNIT  53 AT TIME STEP 81, STRESS PERIOD   3
 UBDSV1 SAVING "FLOW RIGHT FACE " ON UNIT  53 AT TIME STEP 81, STRESS PERIOD   3
 UBDSV1 SAVING "FLOW FRONT FACE " ON UNIT  53 AT TIME STEP 81, STRESS PERIOD   3
 UBDSV1 SAVING "FLOW LOWER FACE " ON UNIT  53 AT TIME STEP 81, STRESS PERIOD   3

 SAVING SATURATED THICKNESS AND FLOW TERMS ON UNIT   54 FOR MT3DMS
 BY THE LINK-MT3DMS PACKAGE V7 AT TIME STEP   81, STRESS PERIOD    3

1
              HEAD IN LAYER   1 AT END OF TIME STEP  81 IN STRESS PERIOD    3
  ---------------------------------------------------------------------------

            1           2           3           4           5           6           7           8           9          10
 ........................................................................................................................
   1    9.998       8.953       7.895       6.822       5.733       4.626       3.499       2.352       1.187      1.5485E-03
   2    9.998       8.955       7.898       6.828       5.741       4.634       3.506       2.357       1.190      1.5519E-03
   3    9.998       8.958       7.905       6.838       5.756       4.652       3.521       2.367       1.195      1.5588E-03
   4    9.998       8.962       7.914       6.854       5.781       4.685       3.546       2.383       1.202      1.5683E-03
   5    9.998       8.966       7.923       6.873       5.818       4.752       3.584       2.401       1.209      1.5785E-03
   6    9.998       8.968       7.928       6.886       5.860       4.932       3.627       2.414       1.214      1.5846E-03
   7    9.998       8.967       7.925       6.876       5.821       4.755       3.587       2.403       1.211      1.5803E-03
   8    9.998       8.964       7.918       6.860       5.788       4.693       3.553       2.388       1.204      1.5719E-03
   9    9.998       8.962       7.912       6.848       5.767       4.664       3.532       2.376       1.199      1.5647E-03
  10    9.998       8.960       7.908       6.842       5.758       4.652       3.522       2.369       1.196      1.5607E-03
1
              HEAD IN LAYER   2 AT END OF TIME STEP  81 IN STRESS PERIOD    3
  ---------------------------------------------------------------------------

            1           2           3           4           5           6           7           8           9          10
 ........................................................................................................................
   1    9.998       8.952       7.893       6.820       5.731       4.624       3.497       2.350       1.185      2.5452E-03
   2    9.998       8.953       7.896       6.826       5.739       4.632       3.504       2.355       1.188      2.5507E-03
   3    9.998       8.956       7.903       6.836       5.754       4.650       3.519       2.365       1.193      2.5615E-03
   4    9.998       8.960       7.912       6.852       5.779       4.683       3.544       2.380       1.200      2.5765E-03
   5    9.998       8.964       7.921       6.871       5.816       4.749       3.581       2.399       1.207      2.5926E-03
   6    9.998       8.966       7.926       6.884       5.858       4.953       3.624       2.412       1.212      2.6021E-03
   7    9.998       8.965       7.923       6.874       5.819       4.752       3.584       2.401       1.208      2.5954E-03
   8    9.998       8.962       7.916       6.858       5.786       4.690       3.551       2.385       1.202      2.5823E-03
   9    9.998       8.960       7.910       6.846       5.765       4.662       3.530       2.373       1.197      2.5708E-03
  10    9.998       8.958       7.906       6.840       5.756       4.650       3.520       2.367       1.194      2.5645E-03
1
              HEAD IN LAYER   3 AT END OF TIME STEP  81 IN STRESS PERIOD    3
  ---------------------------------------------------------------------------

            1           2           3           4           5           6           7           8           9          10
 ........................................................................................................................
   1    9.998       8.950       7.891       6.819       5.730       4.622       3.495       2.348       1.183      2.5952E-03
   2    9.998       8.952       7.895       6.824       5.737       4.630       3.502       2.353       1.186      2.6008E-03
   3    9.998       8.955       7.901       6.835       5.752       4.648       3.517       2.363       1.191      2.6117E-03
   4    9.998       8.959       7.910       6.851       5.777       4.681       3.542       2.378       1.198      2.6270E-03
   5    9.998       8.963       7.919       6.869       5.813       4.743       3.579       2.397       1.205      2.6433E-03
   6    9.998       8.965       7.924       6.882       5.853       4.886       3.618       2.410       1.210      2.6528E-03
   7    9.998       8.964       7.921       6.872       5.817       4.747       3.582       2.399       1.206      2.6460E-03
   8    9.998       8.961       7.914       6.857       5.784       4.688       3.549       2.383       1.200      2.6328E-03
   9    9.998       8.958       7.908       6.844       5.764       4.660       3.528       2.371       1.195      2.6211E-03
  10    9.998       8.957       7.905       6.838       5.754       4.648       3.518       2.365       1.192      2.6147E-03
1
              HEAD IN LAYER   4 AT END OF TIME STEP  81 IN STRESS PERIOD    3
  ---------------------------------------------------------------------------

            1           2           3           4           5           6           7           8           9          10
 ........................................................................................................................
   1    9.998       8.949       7.890       6.818       5.729       4.621       3.494       2.347       1.182      2.5949E-03
   2    9.998       8.951       7.894       6.823       5.736       4.629       3.501       2.352       1.185      2.6005E-03
   3    9.998       8.954       7.900       6.834       5.751       4.647       3.516       2.362       1.190      2.6113E-03
   4    9.998       8.958       7.909       6.850       5.776       4.679       3.541       2.377       1.197      2.6266E-03
   5    9.998       8.962       7.918       6.868       5.812       4.739       3.577       2.395       1.204      2.6428E-03
   6    9.998       8.964       7.923       6.881       5.848       4.846       3.614       2.408       1.208      2.6523E-03
   7    9.998       8.963       7.920       6.871       5.815       4.742       3.580       2.397       1.205      2.6456E-03
   8    9.998       8.960       7.913       6.855       5.783       4.687       3.547       2.382       1.199      2.6324E-03
   9    9.998       8.958       7.907       6.843       5.762       4.659       3.527       2.370       1.194      2.6207E-03
  10    9.998       8.956       7.904       6.837       5.753       4.647       3.517       2.364       1.191      2.6144E-03
1
              HEAD IN LAYER   5 AT END OF TIME STEP  81 IN STRESS PERIOD    3
  ---------------------------------------------------------------------------

            1           2           3           4           5           6           7           8           9          10
 ........................................................................................................................
   1    9.998       8.949       7.890       6.817       5.728       4.621       3.493       2.346       1.182      2.5938E-03
   2    9.998       8.951       7.893       6.822       5.735       4.629       3.500       2.351       1.184      2.5993E-03
   3    9.998       8.954       7.900       6.833       5.751       4.646       3.515       2.361       1.189      2.6101E-03
   4    9.998       8.958       7.909       6.849       5.775       4.679       3.540       2.376       1.196      2.6253E-03
   5    9.998       8.961       7.918       6.867       5.811       4.736       3.576       2.394       1.203      2.6416E-03
   6    9.998       8.963       7.923       6.880       5.846       4.828       3.611       2.407       1.208      2.6510E-03
   7    9.998       8.962       7.920       6.870       5.814       4.740       3.579       2.397       1.205      2.6443E-03
   8    9.998       8.960       7.913       6.855       5.782       4.686       3.547       2.381       1.199      2.6311E-03
   9    9.998       8.957       7.907       6.843       5.762       4.658       3.526       2.369       1.193      2.6195E-03
  10    9.998       8.956       7.903       6.836       5.752       4.646       3.516       2.363       1.190      2.6132E-03

 HEAD WILL BE SAVED ON UNIT   51 AT END OF TIME STEP   81, STRESS PERIOD    3

 DRAWDOWN WILL BE SAVED ON UNIT   52 AT END OF TIME STEP   81, STRESS PERIOD    3
1
  VOLUMETRIC BUDGET FOR ENTIRE MODEL AT END OF TIME STEP   81, STRESS PERIOD   3
  ------------------------------------------------------------------------------

     CUMULATIVE VOLUMES      L**3       RATES FOR THIS TIME STEP      L**3/T
     ------------------                 ------------------------

           IN:                                      IN:
           ---                                      ---
             STORAGE =         840.4699               STORAGE =           3.7714
       CONSTANT HEAD =           0.0000         CONSTANT HEAD =           0.0000
               WELLS =       14860.0000                 WELLS =          60.0000
     HEAD DEP BOUNDS =      208761.2656       HEAD DEP BOUNDS =        1137.6095

            TOTAL IN =      224461.7344              TOTAL IN =        1201.3810

          OUT:                                     OUT:
          ----                                     ----
             STORAGE =        7464.4473               STORAGE =       7.9258E-02
       CONSTANT HEAD =           0.0000         CONSTANT HEAD =           0.0000
               WELLS =           0.0000                 WELLS =           0.0000
     HEAD DEP BOUNDS =      216991.1719       HEAD DEP BOUNDS =        1201.2592

           TOTAL OUT =      224455.6250             TOTAL OUT =        1201.3384

            IN - OUT =           6.1094              IN - OUT =       4.2603E-02

 PERCENT DISCREPANCY =           0.00     PERCENT DISCREPANCY =           0.00






         TIME SUMMARY AT END OF TIME STEP   81 IN STRESS PERIOD    3
                    SECONDS     MINUTES      HOURS       DAYS        YEARS
                    -----------------------------------------------------------
   TIME STEP LENGTH  86400.      1440.0      24.000      1.0000     2.73785E-03
 STRESS PERIOD TIME 6.99840E+06 1.16640E+05  1944.0      81.000     0.22177    
         TOTAL TIME 1.57248E+07 2.62080E+05  4368.0      182.00     0.49829    
1
 
 SOLVING FOR HEAD 

 OUTPUT CONTROL FOR STRESS PERIOD    3   TIME STEP   82
    SAVE HEAD FOR ALL LAYERS
    SAVE DRAWDOWN FOR ALL LAYERS
    SAVE BUDGET
    PRINT HEAD FOR ALL LAYERS
    PRINT BUDGET
 UBDSV1 SAVING "         STORAGE" ON UNIT  53 AT TIME STEP 82, STRESS PERIOD   3
 UBDSV2 SAVING "   CONSTANT HEAD" ON UNIT  53 AT TIME STEP 82, STRESS PERIOD   3
 UBDSV1 SAVING "FLOW RIGHT FACE " ON UNIT  53 AT TIME STEP 82, STRESS PERIOD   3
 UBDSV1 SAVING "FLOW FRONT FACE " ON UNIT  53 AT TIME STEP 82, STRESS PERIOD   3
 UBDSV1 SAVING "FLOW LOWER FACE " ON UNIT  53 AT TIME STEP 82, STRESS PERIOD   3

 SAVING SATURATED THICKNESS AND FLOW TERMS ON UNIT   54 FOR MT3DMS
 BY THE LINK-MT3DMS PACKAGE V7 AT TIME STEP   82, STRESS PERIOD    3

1
              HEAD IN LAYER   1 AT END OF TIME STEP  82 IN STRESS PERIOD    3
  ---------------------------------------------------------------------------

            1           2           3           4           5           6           7           8           9          10
 ........................................................................................................................
   1    9.998       8.953       7.895       6.822       5.733       4.626       3.499       2.352       1.187      1.5485E-03
   2    9.998       8.955       7.898       6.828       5.741       4.634       3.506       2.357       1.190      1.5519E-03
   3    9.998       8.958       7.905       6.838       5.756       4.652       3.521       2.367       1.195      1.5588E-03
   4    9.998       8.962       7.914       6.854       5.781       4.685       3.546       2.383       1.202      1.5683E-03
   5    9.998       8.966       7.923       6.873       5.818       4.752       3.584       2.401       1.209      1.5785E-03
   6    9.998       8.968       7.928       6.886       5.860       4.932       3.627       2.414       1.214      1.5845E-03
   7    9.998       8.967       7.925       6.876       5.821       4.755       3.587       2.403       1.211      1.5802E-03
   8    9.998       8.964       7.918       6.860       5.788       4.692       3.553       2.388       1.204      1.5719E-03
   9    9.998       8.962       7.912       6.848       5.767       4.664       3.532       2.375       1.199      1.5647E-03
  10    9.998       8.960       7.908       6.842       5.758       4.652       3.522       2.369       1.196      1.5607E-03
1
              HEAD IN LAYER   2 AT END OF TIME STEP  82 IN STRESS PERIOD    3
  ---------------------------------------------------------------------------

            1           2           3           4           5           6           7           8           9          10
 ........................................................................................................................
   1    9.998       8.952       7.893       6.820       5.731       4.624       3.497       2.350       1.185      2.5452E-03
   2    9.998       8.953       7.896       6.826       5.739       4.632       3.504       2.355       1.188      2.5507E-03
   3    9.998       8.956       7.903       6.836       5.754       4.650       3.519       2.365       1.193      2.5614E-03
   4    9.998       8.960       7.912       6.852       5.779       4.683       3.544       2.380       1.200      2.5765E-03
   5    9.998       8.964       7.921       6.871       5.815       4.749       3.581       2.399       1.207      2.5925E-03
   6    9.998       8.966       7.926       6.884       5.857       4.953       3.624       2.412       1.212      2.6020E-03
   7    9.998       8.965       7.923       6.874       5.819       4.752       3.584       2.401       1.208      2.5953E-03
   8    9.998       8.962       7.916       6.858       5.786       4.690       3.551       2.385       1.202      2.5822E-03
   9    9.998       8.960       7.910       6.846       5.765       4.662       3.530       2.373       1.197      2.5707E-03
  10    9.998       8.958       7.906       6.840       5.756       4.650       3.520       2.367       1.194      2.5644E-03
1
              HEAD IN LAYER   3 AT END OF TIME STEP  82 IN STRESS PERIOD    3
  ---------------------------------------------------------------------------

            1           2           3           4           5           6           7           8           9          10
 ........................................................................................................................
   1    9.998       8.950       7.891       6.819       5.730       4.622       3.495       2.348       1.183      2.5952E-03
   2    9.998       8.952       7.895       6.824       5.737       4.630       3.502       2.353       1.186      2.6008E-03
   3    9.998       8.955       7.901       6.835       5.752       4.648       3.517       2.363       1.191      2.6116E-03
   4    9.998       8.959       7.910       6.851       5.777       4.681       3.542       2.378       1.198      2.6269E-03
   5    9.998       8.963       7.919       6.869       5.813       4.743       3.578       2.397       1.205      2.6432E-03
   6    9.998       8.965       7.924       6.882       5.853       4.885       3.618       2.409       1.210      2.6528E-03
   7    9.998       8.964       7.921       6.872       5.817       4.747       3.582       2.399       1.206      2.6460E-03
   8    9.998       8.961       7.914       6.856       5.784       4.688       3.549       2.383       1.200      2.6327E-03
   9    9.998       8.958       7.908       6.844       5.764       4.660       3.528       2.371       1.195      2.6211E-03
  10    9.998       8.957       7.904       6.838       5.754       4.648       3.518       2.365       1.192      2.6147E-03
1
              HEAD IN LAYER   4 AT END OF TIME STEP  82 IN STRESS PERIOD    3
  ---------------------------------------------------------------------------

            1           2           3           4           5           6           7           8           9          10
 ........................................................................................................................
   1    9.998       8.949       7.890       6.818       5.729       4.621       3.494       2.347       1.182      2.5949E-03
   2    9.998       8.951       7.894       6.823       5.736       4.629       3.501       2.352       1.185      2.6004E-03
   3    9.998       8.954       7.900       6.834       5.751       4.647       3.516       2.362       1.190      2.6113E-03
   4    9.998       8.958       7.909       6.849       5.776       4.679       3.541       2.377       1.197      2.6265E-03
   5    9.998       8.962       7.918       6.868       5.812       4.739       3.577       2.395       1.204      2.6427E-03
   6    9.998       8.964       7.923       6.881       5.848       4.846       3.613       2.408       1.208      2.6522E-03
   7    9.998       8.963       7.920       6.871       5.815       4.742       3.580       2.397       1.205      2.6455E-03
   8    9.998       8.960       7.913       6.855       5.783       4.687       3.547       2.382       1.199      2.6323E-03
   9    9.998       8.958       7.907       6.843       5.762       4.659       3.527       2.370       1.194      2.6207E-03
  10    9.998       8.956       7.903       6.837       5.753       4.647       3.517       2.364       1.191      2.6143E-03
1
              HEAD IN LAYER   5 AT END OF TIME STEP  82 IN STRESS PERIOD    3
  ---------------------------------------------------------------------------

            1           2           3           4           5           6           7           8           9          10
 ........................................................................................................................
   1    9.998       8.949       7.890       6.817       5.728       4.621       3.493       2.346       1.182      2.5938E-03
   2    9.998       8.951       7.893       6.822       5.735       4.629       3.500       2.351       1.184      2.5993E-03
   3    9.998       8.954       7.900       6.833       5.751       4.646       3.515       2.361       1.189      2.6101E-03
   4    9.998       8.958       7.909       6.849       5.775       4.679       3.540       2.376       1.196      2.6253E-03
   5    9.998       8.961       7.918       6.867       5.811       4.736       3.576       2.394       1.203      2.6415E-03
   6    9.998       8.963       7.923       6.880       5.846       4.828       3.611       2.407       1.208      2.6509E-03
   7    9.998       8.962       7.920       6.870       5.814       4.740       3.579       2.397       1.205      2.6442E-03
   8    9.998       8.960       7.913       6.855       5.782       4.686       3.547       2.381       1.199      2.6311E-03
   9    9.998       8.957       7.907       6.843       5.762       4.658       3.526       2.369       1.193      2.6195E-03
  10    9.998       8.956       7.903       6.836       5.752       4.646       3.516       2.363       1.190      2.6131E-03

 HEAD WILL BE SAVED ON UNIT   51 AT END OF TIME STEP   82, STRESS PERIOD    3

 DRAWDOWN WILL BE SAVED ON UNIT   52 AT END OF TIME STEP   82, STRESS PERIOD    3
1
  VOLUMETRIC BUDGET FOR ENTIRE MODEL AT END OF TIME STEP   82, STRESS PERIOD   3
  ------------------------------------------------------------------------------

     CUMULATIVE VOLUMES      L**3       RATES FOR THIS TIME STEP      L**3/T
     ------------------                 ------------------------

           IN:                                      IN:
           ---                                      ---
             STORAGE =         844.1924               STORAGE =           3.7225
       CONSTANT HEAD =           0.0000         CONSTANT HEAD =           0.0000
               WELLS =       14920.0000                 WELLS =          60.0000
     HEAD DEP BOUNDS =      209898.8906       HEAD DEP BOUNDS =        1137.6239

            TOTAL IN =      225663.0781              TOTAL IN =        1201.3464

          OUT:                                     OUT:
          ----                                     ----
             STORAGE =        7464.5151               STORAGE =       6.8005E-02
       CONSTANT HEAD =           0.0000         CONSTANT HEAD =           0.0000
               WELLS =           0.0000                 WELLS =           0.0000
     HEAD DEP BOUNDS =      218192.4062       HEAD DEP BOUNDS =        1201.2343

           TOTAL OUT =      225656.9219             TOTAL OUT =        1201.3022

            IN - OUT =           6.1562              IN - OUT =       4.4189E-02

 PERCENT DISCREPANCY =           0.00     PERCENT DISCREPANCY =           0.00






         TIME SUMMARY AT END OF TIME STEP   82 IN STRESS PERIOD    3
                    SECONDS     MINUTES      HOURS       DAYS        YEARS
                    -----------------------------------------------------------
   TIME STEP LENGTH  86400.      1440.0      24.000      1.0000     2.73785E-03
 STRESS PERIOD TIME 7.08480E+06 1.18080E+05  1968.0      82.000     0.22450    
         TOTAL TIME 1.58112E+07 2.63520E+05  4392.0      183.00     0.50103    
1
 
 SOLVING FOR HEAD 

 OUTPUT CONTROL FOR STRESS PERIOD    3   TIME STEP   83
    SAVE HEAD FOR ALL LAYERS
    SAVE DRAWDOWN FOR ALL LAYERS
    SAVE BUDGET
    PRINT HEAD FOR ALL LAYERS
    PRINT BUDGET
 UBDSV1 SAVING "         STORAGE" ON UNIT  53 AT TIME STEP 83, STRESS PERIOD   3
 UBDSV2 SAVING "   CONSTANT HEAD" ON UNIT  53 AT TIME STEP 83, STRESS PERIOD   3
 UBDSV1 SAVING "FLOW RIGHT FACE " ON UNIT  53 AT TIME STEP 83, STRESS PERIOD   3
 UBDSV1 SAVING "FLOW FRONT FACE " ON UNIT  53 AT TIME STEP 83, STRESS PERIOD   3
 UBDSV1 SAVING "FLOW LOWER FACE " ON UNIT  53 AT TIME STEP 83, STRESS PERIOD   3

 SAVING SATURATED THICKNESS AND FLOW TERMS ON UNIT   54 FOR MT3DMS
 BY THE LINK-MT3DMS PACKAGE V7 AT TIME STEP   83, STRESS PERIOD    3

1
              HEAD IN LAYER   1 AT END OF TIME STEP  83 IN STRESS PERIOD    3
  ---------------------------------------------------------------------------

            1           2           3           4           5           6           7           8           9          10
 ........................................................................................................................
   1    9.998       8.953       7.895       6.822       5.733       4.626       3.499       2.352       1.187      1.5485E-03
   2    9.998       8.955       7.898       6.828       5.741       4.634       3.506       2.357       1.190      1.5519E-03
   3    9.998       8.958       7.905       6.838       5.756       4.652       3.521       2.367       1.195      1.5588E-03
   4    9.998       8.962       7.914       6.854       5.781       4.685       3.546       2.383       1.202      1.5682E-03
   5    9.998       8.966       7.923       6.873       5.818       4.752       3.584       2.401       1.209      1.5784E-03
   6    9.998       8.968       7.928       6.886       5.860       4.932       3.627       2.414       1.214      1.5845E-03
   7    9.998       8.967       7.925       6.875       5.821       4.755       3.587       2.403       1.210      1.5801E-03
   8    9.998       8.964       7.918       6.860       5.788       4.692       3.553       2.388       1.204      1.5718E-03
   9    9.998       8.962       7.912       6.848       5.767       4.664       3.532       2.375       1.199      1.5647E-03
  10    9.998       8.960       7.908       6.842       5.758       4.652       3.522       2.369       1.196      1.5607E-03
1
              HEAD IN LAYER   2 AT END OF TIME STEP  83 IN STRESS PERIOD    3
  ---------------------------------------------------------------------------

            1           2           3           4           5           6           7           8           9          10
 ........................................................................................................................
   1    9.998       8.952       7.893       6.820       5.731       4.624       3.497       2.350       1.185      2.5452E-03
   2    9.998       8.953       7.896       6.826       5.739       4.632       3.504       2.355       1.188      2.5507E-03
   3    9.998       8.956       7.903       6.836       5.754       4.650       3.519       2.365       1.193      2.5614E-03
   4    9.998       8.960       7.912       6.852       5.779       4.683       3.544       2.380       1.200      2.5764E-03
   5    9.998       8.964       7.921       6.871       5.815       4.749       3.581       2.399       1.207      2.5925E-03
   6    9.998       8.966       7.926       6.884       5.857       4.953       3.624       2.412       1.211      2.6019E-03
   7    9.998       8.965       7.923       6.873       5.819       4.752       3.584       2.401       1.208      2.5952E-03
   8    9.998       8.962       7.916       6.858       5.786       4.690       3.551       2.385       1.202      2.5821E-03
   9    9.998       8.960       7.910       6.846       5.765       4.662       3.530       2.373       1.197      2.5707E-03
  10    9.998       8.958       7.906       6.840       5.755       4.650       3.520       2.367       1.194      2.5644E-03
1
              HEAD IN LAYER   3 AT END OF TIME STEP  83 IN STRESS PERIOD    3
  ---------------------------------------------------------------------------

            1           2           3           4           5           6           7           8           9          10
 ........................................................................................................................
   1    9.998       8.950       7.891       6.819       5.730       4.622       3.495       2.348       1.183      2.5952E-03
   2    9.998       8.952       7.895       6.824       5.737       4.630       3.502       2.353       1.186      2.6007E-03
   3    9.998       8.955       7.901       6.835       5.752       4.648       3.517       2.363       1.191      2.6116E-03
   4    9.998       8.959       7.910       6.851       5.777       4.681       3.542       2.378       1.198      2.6268E-03
   5    9.998       8.963       7.919       6.869       5.813       4.743       3.578       2.396       1.205      2.6431E-03
   6    9.998       8.965       7.924       6.882       5.852       4.885       3.618       2.409       1.209      2.6527E-03
   7    9.998       8.964       7.921       6.872       5.817       4.747       3.581       2.399       1.206      2.6459E-03
   8    9.998       8.961       7.914       6.856       5.784       4.688       3.549       2.383       1.200      2.6326E-03
   9    9.998       8.958       7.908       6.844       5.764       4.660       3.528       2.371       1.195      2.6210E-03
  10    9.998       8.957       7.904       6.838       5.754       4.648       3.518       2.365       1.192      2.6146E-03
1
              HEAD IN LAYER   4 AT END OF TIME STEP  83 IN STRESS PERIOD    3
  ---------------------------------------------------------------------------

            1           2           3           4           5           6           7           8           9          10
 ........................................................................................................................
   1    9.998       8.949       7.890       6.818       5.729       4.621       3.494       2.347       1.182      2.5949E-03
   2    9.998       8.951       7.894       6.823       5.736       4.629       3.501       2.352       1.185      2.6004E-03
   3    9.998       8.954       7.900       6.834       5.751       4.647       3.516       2.362       1.190      2.6113E-03
   4    9.998       8.958       7.909       6.849       5.776       4.679       3.541       2.377       1.196      2.6264E-03
   5    9.998       8.962       7.918       6.868       5.812       4.739       3.577       2.395       1.204      2.6427E-03
   6    9.998       8.964       7.923       6.881       5.848       4.846       3.613       2.408       1.208      2.6521E-03
   7    9.998       8.963       7.920       6.871       5.815       4.742       3.580       2.397       1.205      2.6454E-03
   8    9.998       8.960       7.913       6.855       5.783       4.686       3.547       2.382       1.199      2.6322E-03
   9    9.998       8.958       7.907       6.843       5.762       4.659       3.526       2.370       1.194      2.6206E-03
  10    9.998       8.956       7.903       6.837       5.753       4.647       3.517       2.364       1.191      2.6143E-03
1
              HEAD IN LAYER   5 AT END OF TIME STEP  83 IN STRESS PERIOD    3
  ---------------------------------------------------------------------------

            1           2           3           4           5           6           7           8           9          10
 ........................................................................................................................
   1    9.998       8.949       7.890       6.817       5.728       4.621       3.493       2.346       1.182      2.5938E-03
   2    9.998       8.951       7.893       6.822       5.735       4.629       3.500       2.351       1.184      2.5993E-03
   3    9.998       8.954       7.900       6.833       5.750       4.646       3.515       2.361       1.189      2.6101E-03
   4    9.998       8.958       7.909       6.849       5.775       4.679       3.540       2.376       1.196      2.6252E-03
   5    9.998       8.961       7.918       6.867       5.811       4.736       3.576       2.394       1.203      2.6414E-03
   6    9.998       8.963       7.923       6.880       5.846       4.827       3.611       2.407       1.208      2.6509E-03
   7    9.998       8.962       7.920       6.870       5.814       4.740       3.579       2.397       1.205      2.6441E-03
   8    9.998       8.960       7.913       6.855       5.782       4.686       3.546       2.381       1.199      2.6310E-03
   9    9.998       8.957       7.906       6.843       5.762       4.658       3.526       2.369       1.193      2.6194E-03
  10    9.998       8.956       7.903       6.836       5.752       4.646       3.516       2.363       1.190      2.6131E-03

 HEAD WILL BE SAVED ON UNIT   51 AT END OF TIME STEP   83, STRESS PERIOD    3

 DRAWDOWN WILL BE SAVED ON UNIT   52 AT END OF TIME STEP   83, STRESS PERIOD    3
1
  VOLUMETRIC BUDGET FOR ENTIRE MODEL AT END OF TIME STEP   83, STRESS PERIOD   3
  ------------------------------------------------------------------------------

     CUMULATIVE VOLUMES      L**3       RATES FOR THIS TIME STEP      L**3/T
     ------------------                 ------------------------

           IN:                                      IN:
           ---                                      ---
             STORAGE =         847.8718               STORAGE =           3.6794
       CONSTANT HEAD =           0.0000         CONSTANT HEAD =           0.0000
               WELLS =       14980.0000                 WELLS =          60.0000
     HEAD DEP BOUNDS =      211036.5312       HEAD DEP BOUNDS =        1137.6382

            TOTAL IN =      226864.4062              TOTAL IN =        1201.3176

          OUT:                                     OUT:
          ----                                     ----
             STORAGE =        7464.5728               STORAGE =       5.7419E-02
       CONSTANT HEAD =           0.0000         CONSTANT HEAD =           0.0000
               WELLS =           0.0000                 WELLS =           0.0000
     HEAD DEP BOUNDS =      219393.6094       HEAD DEP BOUNDS =        1201.2087

           TOTAL OUT =      226858.1875             TOTAL OUT =        1201.2661

            IN - OUT =           6.2188              IN - OUT =       5.1514E-02

 PERCENT DISCREPANCY =           0.00     PERCENT DISCREPANCY =           0.00






         TIME SUMMARY AT END OF TIME STEP   83 IN STRESS PERIOD    3
                    SECONDS     MINUTES      HOURS       DAYS        YEARS
                    -----------------------------------------------------------
   TIME STEP LENGTH  86400.      1440.0      24.000      1.0000     2.73785E-03
 STRESS PERIOD TIME 7.17120E+06 1.19520E+05  1992.0      83.000     0.22724    
         TOTAL TIME 1.58976E+07 2.64960E+05  4416.0      184.00     0.50376    
1
 
 SOLVING FOR HEAD 

 OUTPUT CONTROL FOR STRESS PERIOD    3   TIME STEP   84
    SAVE HEAD FOR ALL LAYERS
    SAVE DRAWDOWN FOR ALL LAYERS
    SAVE BUDGET
    PRINT HEAD FOR ALL LAYERS
    PRINT BUDGET
 UBDSV1 SAVING "         STORAGE" ON UNIT  53 AT TIME STEP 84, STRESS PERIOD   3
 UBDSV2 SAVING "   CONSTANT HEAD" ON UNIT  53 AT TIME STEP 84, STRESS PERIOD   3
 UBDSV1 SAVING "FLOW RIGHT FACE " ON UNIT  53 AT TIME STEP 84, STRESS PERIOD   3
 UBDSV1 SAVING "FLOW FRONT FACE " ON UNIT  53 AT TIME STEP 84, STRESS PERIOD   3
 UBDSV1 SAVING "FLOW LOWER FACE " ON UNIT  53 AT TIME STEP 84, STRESS PERIOD   3

 SAVING SATURATED THICKNESS AND FLOW TERMS ON UNIT   54 FOR MT3DMS
 BY THE LINK-MT3DMS PACKAGE V7 AT TIME STEP   84, STRESS PERIOD    3

1
              HEAD IN LAYER   1 AT END OF TIME STEP  84 IN STRESS PERIOD    3
  ---------------------------------------------------------------------------

            1           2           3           4           5           6           7           8           9          10
 ........................................................................................................................
   1    9.998       8.953       7.895       6.822       5.733       4.626       3.499       2.352       1.187      1.5485E-03
   2    9.998       8.955       7.898       6.828       5.741       4.634       3.506       2.357       1.190      1.5519E-03
   3    9.998       8.958       7.905       6.838       5.756       4.652       3.521       2.367       1.195      1.5587E-03
   4    9.998       8.962       7.914       6.854       5.781       4.685       3.546       2.383       1.202      1.5681E-03
   5    9.998       8.966       7.923       6.873       5.818       4.751       3.583       2.401       1.209      1.5784E-03
   6    9.998       8.968       7.928       6.886       5.860       4.932       3.627       2.414       1.214      1.5844E-03
   7    9.998       8.967       7.925       6.875       5.821       4.755       3.586       2.403       1.210      1.5801E-03
   8    9.998       8.964       7.918       6.860       5.788       4.692       3.553       2.387       1.204      1.5718E-03
   9    9.998       8.961       7.911       6.848       5.767       4.664       3.532       2.375       1.199      1.5646E-03
  10    9.998       8.960       7.908       6.842       5.758       4.652       3.522       2.369       1.196      1.5606E-03
1
              HEAD IN LAYER   2 AT END OF TIME STEP  84 IN STRESS PERIOD    3
  ---------------------------------------------------------------------------

            1           2           3           4           5           6           7           8           9          10
 ........................................................................................................................
   1    9.998       8.952       7.893       6.820       5.731       4.624       3.497       2.350       1.185      2.5452E-03
   2    9.998       8.953       7.896       6.826       5.739       4.632       3.504       2.355       1.188      2.5507E-03
   3    9.998       8.956       7.903       6.836       5.754       4.650       3.519       2.365       1.193      2.5613E-03
   4    9.998       8.960       7.912       6.852       5.779       4.683       3.544       2.380       1.200      2.5763E-03
   5    9.998       8.964       7.921       6.871       5.815       4.748       3.581       2.399       1.207      2.5924E-03
   6    9.998       8.966       7.926       6.884       5.857       4.953       3.624       2.412       1.211      2.6018E-03
   7    9.998       8.965       7.923       6.873       5.819       4.752       3.584       2.401       1.208      2.5951E-03
   8    9.998       8.962       7.916       6.858       5.786       4.690       3.550       2.385       1.202      2.5820E-03
   9    9.998       8.960       7.910       6.846       5.765       4.662       3.530       2.373       1.197      2.5706E-03
  10    9.998       8.958       7.906       6.839       5.755       4.650       3.520       2.367       1.194      2.5643E-03
1
              HEAD IN LAYER   3 AT END OF TIME STEP  84 IN STRESS PERIOD    3
  ---------------------------------------------------------------------------

            1           2           3           4           5           6           7           8           9          10
 ........................................................................................................................
   1    9.998       8.950       7.891       6.819       5.730       4.622       3.495       2.348       1.183      2.5952E-03
   2    9.998       8.952       7.895       6.824       5.737       4.630       3.502       2.353       1.186      2.6007E-03
   3    9.998       8.955       7.901       6.835       5.752       4.648       3.517       2.363       1.191      2.6116E-03
   4    9.998       8.959       7.910       6.850       5.777       4.681       3.542       2.378       1.198      2.6268E-03
   5    9.998       8.963       7.919       6.869       5.813       4.743       3.578       2.396       1.205      2.6430E-03
   6    9.998       8.964       7.924       6.882       5.852       4.885       3.618       2.409       1.209      2.6526E-03
   7    9.998       8.964       7.921       6.872       5.816       4.747       3.581       2.399       1.206      2.6458E-03
   8    9.998       8.961       7.914       6.856       5.784       4.688       3.548       2.383       1.200      2.6326E-03
   9    9.998       8.958       7.908       6.844       5.763       4.660       3.528       2.371       1.195      2.6210E-03
  10    9.998       8.957       7.904       6.838       5.754       4.648       3.518       2.365       1.192      2.6146E-03
1
              HEAD IN LAYER   4 AT END OF TIME STEP  84 IN STRESS PERIOD    3
  ---------------------------------------------------------------------------

            1           2           3           4           5           6           7           8           9          10
 ........................................................................................................................
   1    9.998       8.949       7.890       6.818       5.729       4.621       3.494       2.347       1.182      2.5949E-03
   2    9.998       8.951       7.894       6.823       5.736       4.629       3.501       2.352       1.185      2.6004E-03
   3    9.998       8.954       7.900       6.834       5.751       4.647       3.516       2.362       1.190      2.6112E-03
   4    9.998       8.958       7.909       6.849       5.776       4.679       3.541       2.377       1.196      2.6264E-03
   5    9.998       8.962       7.918       6.868       5.812       4.739       3.576       2.395       1.204      2.6426E-03
   6    9.998       8.964       7.923       6.881       5.848       4.846       3.613       2.408       1.208      2.6521E-03
   7    9.998       8.963       7.920       6.871       5.815       4.742       3.579       2.397       1.205      2.6453E-03
   8    9.998       8.960       7.913       6.855       5.783       4.686       3.547       2.382       1.199      2.6321E-03
   9    9.998       8.958       7.907       6.843       5.762       4.659       3.526       2.370       1.194      2.6206E-03
  10    9.998       8.956       7.903       6.837       5.753       4.647       3.517       2.364       1.191      2.6142E-03
1
              HEAD IN LAYER   5 AT END OF TIME STEP  84 IN STRESS PERIOD    3
  ---------------------------------------------------------------------------

            1           2           3           4           5           6           7           8           9          10
 ........................................................................................................................
   1    9.998       8.949       7.890       6.817       5.728       4.621       3.493       2.346       1.182      2.5938E-03
   2    9.998       8.951       7.893       6.822       5.735       4.629       3.500       2.351       1.184      2.5993E-03
   3    9.998       8.954       7.900       6.833       5.750       4.646       3.515       2.361       1.189      2.6100E-03
   4    9.998       8.957       7.909       6.849       5.775       4.678       3.540       2.376       1.196      2.6252E-03
   5    9.998       8.961       7.918       6.867       5.811       4.736       3.575       2.394       1.203      2.6413E-03
   6    9.998       8.963       7.923       6.880       5.846       4.827       3.611       2.407       1.208      2.6508E-03
   7    9.998       8.962       7.920       6.870       5.814       4.739       3.578       2.397       1.204      2.6441E-03
   8    9.998       8.960       7.913       6.855       5.782       4.686       3.546       2.381       1.198      2.6309E-03
   9    9.998       8.957       7.906       6.843       5.762       4.658       3.526       2.369       1.193      2.6194E-03
  10    9.998       8.956       7.903       6.836       5.752       4.646       3.516       2.363       1.190      2.6130E-03

 HEAD WILL BE SAVED ON UNIT   51 AT END OF TIME STEP   84, STRESS PERIOD    3

 DRAWDOWN WILL BE SAVED ON UNIT   52 AT END OF TIME STEP   84, STRESS PERIOD    3
1
  VOLUMETRIC BUDGET FOR ENTIRE MODEL AT END OF TIME STEP   84, STRESS PERIOD   3
  ------------------------------------------------------------------------------

     CUMULATIVE VOLUMES      L**3       RATES FOR THIS TIME STEP      L**3/T
     ------------------                 ------------------------

           IN:                                      IN:
           ---                                      ---
             STORAGE =         851.4955               STORAGE =           3.6236
       CONSTANT HEAD =           0.0000         CONSTANT HEAD =           0.0000
               WELLS =       15040.0000                 WELLS =          60.0000
     HEAD DEP BOUNDS =      212174.1875       HEAD DEP BOUNDS =        1137.6527

            TOTAL IN =      228065.6875              TOTAL IN =        1201.2764

          OUT:                                     OUT:
          ----                                     ----
             STORAGE =        7464.6211               STORAGE =       4.8247E-02
       CONSTANT HEAD =           0.0000         CONSTANT HEAD =           0.0000
               WELLS =           0.0000                 WELLS =           0.0000
     HEAD DEP BOUNDS =      220594.7969       HEAD DEP BOUNDS =        1201.1818

           TOTAL OUT =      228059.4219             TOTAL OUT =        1201.2300

            IN - OUT =           6.2656              IN - OUT =       4.6387E-02

 PERCENT DISCREPANCY =           0.00     PERCENT DISCREPANCY =           0.00






         TIME SUMMARY AT END OF TIME STEP   84 IN STRESS PERIOD    3
                    SECONDS     MINUTES      HOURS       DAYS        YEARS
                    -----------------------------------------------------------
   TIME STEP LENGTH  86400.      1440.0      24.000      1.0000     2.73785E-03
 STRESS PERIOD TIME 7.25760E+06 1.20960E+05  2016.0      84.000     0.22998    
         TOTAL TIME 1.59840E+07 2.66400E+05  4440.0      185.00     0.50650    
1
 
 SOLVING FOR HEAD 

 OUTPUT CONTROL FOR STRESS PERIOD    3   TIME STEP   85
    SAVE HEAD FOR ALL LAYERS
    SAVE DRAWDOWN FOR ALL LAYERS
    SAVE BUDGET
    PRINT HEAD FOR ALL LAYERS
    PRINT BUDGET
 UBDSV1 SAVING "         STORAGE" ON UNIT  53 AT TIME STEP 85, STRESS PERIOD   3
 UBDSV2 SAVING "   CONSTANT HEAD" ON UNIT  53 AT TIME STEP 85, STRESS PERIOD   3
 UBDSV1 SAVING "FLOW RIGHT FACE " ON UNIT  53 AT TIME STEP 85, STRESS PERIOD   3
 UBDSV1 SAVING "FLOW FRONT FACE " ON UNIT  53 AT TIME STEP 85, STRESS PERIOD   3
 UBDSV1 SAVING "FLOW LOWER FACE " ON UNIT  53 AT TIME STEP 85, STRESS PERIOD   3

 SAVING SATURATED THICKNESS AND FLOW TERMS ON UNIT   54 FOR MT3DMS
 BY THE LINK-MT3DMS PACKAGE V7 AT TIME STEP   85, STRESS PERIOD    3

1
              HEAD IN LAYER   1 AT END OF TIME STEP  85 IN STRESS PERIOD    3
  ---------------------------------------------------------------------------

            1           2           3           4           5           6           7           8           9          10
 ........................................................................................................................
   1    9.998       8.953       7.895       6.822       5.733       4.626       3.499       2.352       1.187      1.5485E-03
   2    9.998       8.955       7.898       6.828       5.741       4.634       3.506       2.357       1.190      1.5519E-03
   3    9.998       8.958       7.905       6.838       5.756       4.652       3.521       2.367       1.195      1.5586E-03
   4    9.998       8.962       7.913       6.854       5.781       4.685       3.546       2.383       1.202      1.5681E-03
   5    9.998       8.966       7.923       6.873       5.817       4.751       3.583       2.401       1.209      1.5783E-03
   6    9.998       8.968       7.928       6.886       5.860       4.931       3.627       2.414       1.214      1.5843E-03
   7    9.998       8.967       7.925       6.875       5.821       4.755       3.586       2.403       1.210      1.5801E-03
   8    9.998       8.964       7.918       6.860       5.788       4.692       3.553       2.387       1.204      1.5717E-03
   9    9.998       8.961       7.911       6.848       5.767       4.664       3.532       2.375       1.199      1.5646E-03
  10    9.998       8.960       7.908       6.841       5.757       4.652       3.522       2.369       1.196      1.5605E-03
1
              HEAD IN LAYER   2 AT END OF TIME STEP  85 IN STRESS PERIOD    3
  ---------------------------------------------------------------------------

            1           2           3           4           5           6           7           8           9          10
 ........................................................................................................................
   1    9.998       8.952       7.893       6.820       5.731       4.624       3.497       2.350       1.185      2.5452E-03
   2    9.998       8.953       7.896       6.826       5.739       4.632       3.504       2.355       1.188      2.5506E-03
   3    9.998       8.956       7.903       6.836       5.754       4.650       3.519       2.365       1.193      2.5613E-03
   4    9.998       8.960       7.912       6.852       5.779       4.683       3.544       2.380       1.200      2.5763E-03
   5    9.998       8.964       7.921       6.871       5.815       4.748       3.581       2.398       1.207      2.5923E-03
   6    9.998       8.966       7.926       6.884       5.857       4.953       3.624       2.412       1.211      2.6017E-03
   7    9.998       8.965       7.923       6.873       5.819       4.752       3.584       2.401       1.208      2.5950E-03
   8    9.998       8.962       7.916       6.858       5.786       4.690       3.550       2.385       1.202      2.5820E-03
   9    9.998       8.960       7.909       6.846       5.765       4.662       3.530       2.373       1.197      2.5705E-03
  10    9.998       8.958       7.906       6.839       5.755       4.650       3.520       2.367       1.194      2.5643E-03
1
              HEAD IN LAYER   3 AT END OF TIME STEP  85 IN STRESS PERIOD    3
  ---------------------------------------------------------------------------

            1           2           3           4           5           6           7           8           9          10
 ........................................................................................................................
   1    9.998       8.950       7.891       6.819       5.730       4.622       3.495       2.348       1.183      2.5952E-03
   2    9.998       8.952       7.895       6.824       5.737       4.630       3.502       2.353       1.186      2.6007E-03
   3    9.998       8.955       7.901       6.835       5.752       4.648       3.517       2.363       1.191      2.6115E-03
   4    9.998       8.959       7.910       6.850       5.777       4.681       3.542       2.378       1.198      2.6267E-03
   5    9.998       8.962       7.919       6.869       5.813       4.743       3.578       2.396       1.205      2.6430E-03
   6    9.998       8.964       7.924       6.882       5.852       4.885       3.618       2.409       1.209      2.6525E-03
   7    9.998       8.964       7.921       6.872       5.816       4.746       3.581       2.399       1.206      2.6457E-03
   8    9.998       8.961       7.914       6.856       5.784       4.688       3.548       2.383       1.200      2.6325E-03
   9    9.998       8.958       7.908       6.844       5.763       4.660       3.528       2.371       1.195      2.6209E-03
  10    9.998       8.957       7.904       6.838       5.754       4.648       3.518       2.365       1.192      2.6145E-03
1
              HEAD IN LAYER   4 AT END OF TIME STEP  85 IN STRESS PERIOD    3
  ---------------------------------------------------------------------------

            1           2           3           4           5           6           7           8           9          10
 ........................................................................................................................
   1    9.998       8.949       7.890       6.818       5.729       4.621       3.494       2.347       1.182      2.5949E-03
   2    9.998       8.951       7.894       6.823       5.736       4.629       3.501       2.352       1.185      2.6004E-03
   3    9.998       8.954       7.900       6.834       5.751       4.647       3.516       2.362       1.190      2.6112E-03
   4    9.998       8.958       7.909       6.849       5.776       4.679       3.541       2.377       1.196      2.6263E-03
   5    9.998       8.962       7.918       6.868       5.811       4.739       3.576       2.395       1.204      2.6425E-03
   6    9.998       8.964       7.923       6.881       5.848       4.846       3.613       2.408       1.208      2.6520E-03
   7    9.998       8.963       7.920       6.871       5.815       4.742       3.579       2.397       1.205      2.6452E-03
   8    9.998       8.960       7.913       6.855       5.783       4.686       3.547       2.382       1.199      2.6321E-03
   9    9.998       8.957       7.907       6.843       5.762       4.659       3.526       2.370       1.194      2.6205E-03
  10    9.998       8.956       7.903       6.837       5.753       4.647       3.517       2.364       1.191      2.6142E-03
1
              HEAD IN LAYER   5 AT END OF TIME STEP  85 IN STRESS PERIOD    3
  ---------------------------------------------------------------------------

            1           2           3           4           5           6           7           8           9          10
 ........................................................................................................................
   1    9.998       8.949       7.890       6.817       5.728       4.621       3.493       2.346       1.182      2.5938E-03
   2    9.998       8.951       7.893       6.822       5.735       4.629       3.500       2.351       1.184      2.5992E-03
   3    9.998       8.954       7.900       6.833       5.750       4.646       3.515       2.361       1.189      2.6100E-03
   4    9.998       8.957       7.909       6.849       5.775       4.678       3.540       2.376       1.196      2.6251E-03
   5    9.998       8.961       7.918       6.867       5.811       4.736       3.575       2.394       1.203      2.6413E-03
   6    9.998       8.963       7.923       6.880       5.845       4.827       3.611       2.407       1.208      2.6507E-03
   7    9.998       8.962       7.920       6.870       5.814       4.739       3.578       2.396       1.204      2.6440E-03
   8    9.998       8.960       7.913       6.855       5.782       4.686       3.546       2.381       1.198      2.6308E-03
   9    9.998       8.957       7.906       6.843       5.762       4.658       3.526       2.369       1.193      2.6193E-03
  10    9.998       8.956       7.903       6.836       5.752       4.646       3.516       2.363       1.190      2.6130E-03

 HEAD WILL BE SAVED ON UNIT   51 AT END OF TIME STEP   85, STRESS PERIOD    3

 DRAWDOWN WILL BE SAVED ON UNIT   52 AT END OF TIME STEP   85, STRESS PERIOD    3
1
  VOLUMETRIC BUDGET FOR ENTIRE MODEL AT END OF TIME STEP   85, STRESS PERIOD   3
  ------------------------------------------------------------------------------

     CUMULATIVE VOLUMES      L**3       RATES FOR THIS TIME STEP      L**3/T
     ------------------                 ------------------------

           IN:                                      IN:
           ---                                      ---
             STORAGE =         855.0724               STORAGE =           3.5769
       CONSTANT HEAD =           0.0000         CONSTANT HEAD =           0.0000
               WELLS =       15100.0000                 WELLS =          60.0000
     HEAD DEP BOUNDS =      213311.8594       HEAD DEP BOUNDS =        1137.6672

            TOTAL IN =      229266.9375              TOTAL IN =        1201.2441

          OUT:                                     OUT:
          ----                                     ----
             STORAGE =        7464.6602               STORAGE =       3.9236E-02
       CONSTANT HEAD =           0.0000         CONSTANT HEAD =           0.0000
               WELLS =           0.0000                 WELLS =           0.0000
     HEAD DEP BOUNDS =      221795.9531       HEAD DEP BOUNDS =        1201.1580

           TOTAL OUT =      229260.6094             TOTAL OUT =        1201.1971

            IN - OUT =           6.3281              IN - OUT =       4.6997E-02

 PERCENT DISCREPANCY =           0.00     PERCENT DISCREPANCY =           0.00






         TIME SUMMARY AT END OF TIME STEP   85 IN STRESS PERIOD    3
                    SECONDS     MINUTES      HOURS       DAYS        YEARS
                    -----------------------------------------------------------
   TIME STEP LENGTH  86400.      1440.0      24.000      1.0000     2.73785E-03
 STRESS PERIOD TIME 7.34400E+06 1.22400E+05  2040.0      85.000     0.23272    
         TOTAL TIME 1.60704E+07 2.67840E+05  4464.0      186.00     0.50924    
1
 
 SOLVING FOR HEAD 

 OUTPUT CONTROL FOR STRESS PERIOD    3   TIME STEP   86
    SAVE HEAD FOR ALL LAYERS
    SAVE DRAWDOWN FOR ALL LAYERS
    SAVE BUDGET
    PRINT HEAD FOR ALL LAYERS
    PRINT BUDGET
 UBDSV1 SAVING "         STORAGE" ON UNIT  53 AT TIME STEP 86, STRESS PERIOD   3
 UBDSV2 SAVING "   CONSTANT HEAD" ON UNIT  53 AT TIME STEP 86, STRESS PERIOD   3
 UBDSV1 SAVING "FLOW RIGHT FACE " ON UNIT  53 AT TIME STEP 86, STRESS PERIOD   3
 UBDSV1 SAVING "FLOW FRONT FACE " ON UNIT  53 AT TIME STEP 86, STRESS PERIOD   3
 UBDSV1 SAVING "FLOW LOWER FACE " ON UNIT  53 AT TIME STEP 86, STRESS PERIOD   3

 SAVING SATURATED THICKNESS AND FLOW TERMS ON UNIT   54 FOR MT3DMS
 BY THE LINK-MT3DMS PACKAGE V7 AT TIME STEP   86, STRESS PERIOD    3

1
              HEAD IN LAYER   1 AT END OF TIME STEP  86 IN STRESS PERIOD    3
  ---------------------------------------------------------------------------

            1           2           3           4           5           6           7           8           9          10
 ........................................................................................................................
   1    9.998       8.953       7.895       6.822       5.733       4.626       3.499       2.352       1.187      1.5485E-03
   2    9.998       8.955       7.898       6.828       5.741       4.634       3.506       2.357       1.190      1.5519E-03
   3    9.998       8.958       7.905       6.838       5.756       4.652       3.521       2.367       1.195      1.5586E-03
   4    9.998       8.962       7.913       6.854       5.781       4.685       3.546       2.382       1.202      1.5681E-03
   5    9.998       8.966       7.922       6.872       5.817       4.751       3.583       2.401       1.209      1.5783E-03
   6    9.998       8.968       7.928       6.886       5.860       4.931       3.627       2.414       1.214      1.5843E-03
   7    9.998       8.967       7.925       6.875       5.821       4.755       3.586       2.403       1.210      1.5800E-03
   8    9.998       8.964       7.918       6.860       5.788       4.692       3.553       2.387       1.204      1.5717E-03
   9    9.998       8.961       7.911       6.848       5.767       4.664       3.532       2.375       1.199      1.5646E-03
  10    9.998       8.960       7.908       6.841       5.757       4.652       3.522       2.369       1.196      1.5605E-03
1
              HEAD IN LAYER   2 AT END OF TIME STEP  86 IN STRESS PERIOD    3
  ---------------------------------------------------------------------------

            1           2           3           4           5           6           7           8           9          10
 ........................................................................................................................
   1    9.998       8.952       7.893       6.820       5.731       4.624       3.497       2.350       1.185      2.5452E-03
   2    9.998       8.953       7.896       6.826       5.739       4.632       3.504       2.355       1.188      2.5506E-03
   3    9.998       8.956       7.903       6.836       5.754       4.650       3.519       2.365       1.193      2.5613E-03
   4    9.998       8.960       7.912       6.852       5.779       4.683       3.544       2.380       1.200      2.5762E-03
   5    9.998       8.964       7.921       6.870       5.815       4.748       3.581       2.398       1.207      2.5922E-03
   6    9.998       8.966       7.926       6.884       5.857       4.953       3.624       2.412       1.211      2.6017E-03
   7    9.998       8.965       7.923       6.873       5.818       4.752       3.584       2.401       1.208      2.5949E-03
   8    9.998       8.962       7.916       6.858       5.786       4.690       3.550       2.385       1.202      2.5819E-03
   9    9.998       8.960       7.909       6.846       5.765       4.662       3.530       2.373       1.197      2.5705E-03
  10    9.998       8.958       7.906       6.839       5.755       4.650       3.520       2.367       1.194      2.5642E-03
1
              HEAD IN LAYER   3 AT END OF TIME STEP  86 IN STRESS PERIOD    3
  ---------------------------------------------------------------------------

            1           2           3           4           5           6           7           8           9          10
 ........................................................................................................................
   1    9.998       8.950       7.891       6.819       5.730       4.622       3.495       2.348       1.183      2.5952E-03
   2    9.998       8.952       7.895       6.824       5.737       4.630       3.502       2.353       1.186      2.6007E-03
   3    9.998       8.955       7.901       6.835       5.752       4.648       3.517       2.363       1.191      2.6115E-03
   4    9.998       8.959       7.910       6.850       5.777       4.681       3.542       2.378       1.198      2.6267E-03
   5    9.998       8.962       7.919       6.869       5.813       4.743       3.578       2.396       1.205      2.6429E-03
   6    9.998       8.964       7.924       6.882       5.852       4.885       3.618       2.409       1.209      2.6524E-03
   7    9.998       8.964       7.921       6.872       5.816       4.746       3.581       2.399       1.206      2.6456E-03
   8    9.998       8.961       7.914       6.856       5.784       4.688       3.548       2.383       1.200      2.6324E-03
   9    9.998       8.958       7.908       6.844       5.763       4.660       3.528       2.371       1.195      2.6208E-03
  10    9.998       8.957       7.904       6.838       5.754       4.648       3.518       2.365       1.192      2.6145E-03
1
              HEAD IN LAYER   4 AT END OF TIME STEP  86 IN STRESS PERIOD    3
  ---------------------------------------------------------------------------

            1           2           3           4           5           6           7           8           9          10
 ........................................................................................................................
   1    9.998       8.949       7.890       6.818       5.729       4.621       3.494       2.347       1.182      2.5949E-03
   2    9.998       8.951       7.894       6.823       5.736       4.629       3.501       2.352       1.185      2.6004E-03
   3    9.998       8.954       7.900       6.834       5.751       4.647       3.516       2.362       1.190      2.6111E-03
   4    9.998       8.958       7.909       6.849       5.776       4.679       3.541       2.377       1.196      2.6263E-03
   5    9.998       8.962       7.918       6.868       5.811       4.738       3.576       2.395       1.204      2.6424E-03
   6    9.998       8.964       7.923       6.881       5.848       4.845       3.613       2.408       1.208      2.6519E-03
   7    9.998       8.963       7.920       6.870       5.815       4.742       3.579       2.397       1.205      2.6452E-03
   8    9.998       8.960       7.913       6.855       5.783       4.686       3.547       2.382       1.199      2.6320E-03
   9    9.998       8.957       7.907       6.843       5.762       4.659       3.526       2.370       1.194      2.6205E-03
  10    9.998       8.956       7.903       6.837       5.752       4.647       3.517       2.364       1.191      2.6141E-03
1
              HEAD IN LAYER   5 AT END OF TIME STEP  86 IN STRESS PERIOD    3
  ---------------------------------------------------------------------------

            1           2           3           4           5           6           7           8           9          10
 ........................................................................................................................
   1    9.998       8.949       7.890       6.817       5.728       4.621       3.493       2.346       1.182      2.5938E-03
   2    9.998       8.951       7.893       6.822       5.735       4.629       3.500       2.351       1.184      2.5992E-03
   3    9.998       8.954       7.900       6.833       5.750       4.646       3.515       2.361       1.189      2.6100E-03
   4    9.998       8.957       7.908       6.849       5.775       4.678       3.540       2.376       1.196      2.6251E-03
   5    9.998       8.961       7.917       6.867       5.810       4.736       3.575       2.394       1.203      2.6412E-03
   6    9.998       8.963       7.923       6.880       5.845       4.827       3.610       2.407       1.207      2.6506E-03
   7    9.998       8.962       7.920       6.870       5.814       4.739       3.578       2.396       1.204      2.6439E-03
   8    9.998       8.960       7.913       6.855       5.782       4.685       3.546       2.381       1.198      2.6308E-03
   9    9.998       8.957       7.906       6.843       5.762       4.658       3.526       2.369       1.193      2.6193E-03
  10    9.998       8.956       7.903       6.836       5.752       4.646       3.516       2.363       1.190      2.6129E-03

 HEAD WILL BE SAVED ON UNIT   51 AT END OF TIME STEP   86, STRESS PERIOD    3

 DRAWDOWN WILL BE SAVED ON UNIT   52 AT END OF TIME STEP   86, STRESS PERIOD    3
1
  VOLUMETRIC BUDGET FOR ENTIRE MODEL AT END OF TIME STEP   86, STRESS PERIOD   3
  ------------------------------------------------------------------------------

     CUMULATIVE VOLUMES      L**3       RATES FOR THIS TIME STEP      L**3/T
     ------------------                 ------------------------

           IN:                                      IN:
           ---                                      ---
             STORAGE =         858.6003               STORAGE =           3.5279
       CONSTANT HEAD =           0.0000         CONSTANT HEAD =           0.0000
               WELLS =       15160.0000                 WELLS =          60.0000
     HEAD DEP BOUNDS =      214449.5469       HEAD DEP BOUNDS =        1137.6818

            TOTAL IN =      230468.1406              TOTAL IN =        1201.2097

          OUT:                                     OUT:
          ----                                     ----
             STORAGE =        7464.6890               STORAGE =       2.8822E-02
       CONSTANT HEAD =           0.0000         CONSTANT HEAD =           0.0000
               WELLS =           0.0000                 WELLS =           0.0000
     HEAD DEP BOUNDS =      222997.0938       HEAD DEP BOUNDS =        1201.1344

           TOTAL OUT =      230461.7812             TOTAL OUT =        1201.1632

            IN - OUT =           6.3594              IN - OUT =       4.6509E-02

 PERCENT DISCREPANCY =           0.00     PERCENT DISCREPANCY =           0.00






         TIME SUMMARY AT END OF TIME STEP   86 IN STRESS PERIOD    3
                    SECONDS     MINUTES      HOURS       DAYS        YEARS
                    -----------------------------------------------------------
   TIME STEP LENGTH  86400.      1440.0      24.000      1.0000     2.73785E-03
 STRESS PERIOD TIME 7.43040E+06 1.23840E+05  2064.0      86.000     0.23546    
         TOTAL TIME 1.61568E+07 2.69280E+05  4488.0      187.00     0.51198    
1
 
 SOLVING FOR HEAD 

 OUTPUT CONTROL FOR STRESS PERIOD    3   TIME STEP   87
    SAVE HEAD FOR ALL LAYERS
    SAVE DRAWDOWN FOR ALL LAYERS
    SAVE BUDGET
    PRINT HEAD FOR ALL LAYERS
    PRINT BUDGET
 UBDSV1 SAVING "         STORAGE" ON UNIT  53 AT TIME STEP 87, STRESS PERIOD   3
 UBDSV2 SAVING "   CONSTANT HEAD" ON UNIT  53 AT TIME STEP 87, STRESS PERIOD   3
 UBDSV1 SAVING "FLOW RIGHT FACE " ON UNIT  53 AT TIME STEP 87, STRESS PERIOD   3
 UBDSV1 SAVING "FLOW FRONT FACE " ON UNIT  53 AT TIME STEP 87, STRESS PERIOD   3
 UBDSV1 SAVING "FLOW LOWER FACE " ON UNIT  53 AT TIME STEP 87, STRESS PERIOD   3

 SAVING SATURATED THICKNESS AND FLOW TERMS ON UNIT   54 FOR MT3DMS
 BY THE LINK-MT3DMS PACKAGE V7 AT TIME STEP   87, STRESS PERIOD    3

1
              HEAD IN LAYER   1 AT END OF TIME STEP  87 IN STRESS PERIOD    3
  ---------------------------------------------------------------------------

            1           2           3           4           5           6           7           8           9          10
 ........................................................................................................................
   1    9.998       8.953       7.895       6.822       5.733       4.626       3.499       2.352       1.187      1.5485E-03
   2    9.998       8.955       7.898       6.828       5.741       4.634       3.506       2.357       1.190      1.5519E-03
   3    9.998       8.958       7.905       6.838       5.756       4.652       3.521       2.367       1.195      1.5586E-03
   4    9.998       8.962       7.913       6.854       5.781       4.685       3.546       2.382       1.202      1.5680E-03
   5    9.998       8.966       7.922       6.872       5.817       4.751       3.583       2.401       1.209      1.5782E-03
   6    9.998       8.968       7.928       6.886       5.860       4.931       3.627       2.414       1.214      1.5842E-03
   7    9.998       8.967       7.924       6.875       5.821       4.755       3.586       2.403       1.210      1.5800E-03
   8    9.998       8.964       7.918       6.860       5.788       4.692       3.553       2.387       1.204      1.5716E-03
   9    9.998       8.961       7.911       6.848       5.767       4.664       3.532       2.375       1.199      1.5645E-03
  10    9.998       8.960       7.908       6.841       5.757       4.652       3.522       2.369       1.196      1.5605E-03
1
              HEAD IN LAYER   2 AT END OF TIME STEP  87 IN STRESS PERIOD    3
  ---------------------------------------------------------------------------

            1           2           3           4           5           6           7           8           9          10
 ........................................................................................................................
   1    9.998       8.952       7.893       6.820       5.731       4.624       3.497       2.350       1.185      2.5452E-03
   2    9.998       8.953       7.896       6.826       5.739       4.632       3.504       2.355       1.188      2.5506E-03
   3    9.998       8.956       7.903       6.836       5.754       4.650       3.519       2.365       1.193      2.5612E-03
   4    9.998       8.960       7.911       6.852       5.779       4.683       3.544       2.380       1.199      2.5762E-03
   5    9.998       8.964       7.920       6.870       5.815       4.748       3.581       2.398       1.207      2.5922E-03
   6    9.998       8.966       7.926       6.884       5.857       4.953       3.623       2.412       1.211      2.6016E-03
   7    9.998       8.965       7.923       6.873       5.818       4.752       3.584       2.401       1.208      2.5949E-03
   8    9.998       8.962       7.916       6.858       5.786       4.690       3.550       2.385       1.202      2.5818E-03
   9    9.998       8.960       7.909       6.846       5.765       4.662       3.529       2.373       1.197      2.5704E-03
  10    9.998       8.958       7.906       6.839       5.755       4.650       3.520       2.367       1.194      2.5642E-03
1
              HEAD IN LAYER   3 AT END OF TIME STEP  87 IN STRESS PERIOD    3
  ---------------------------------------------------------------------------

            1           2           3           4           5           6           7           8           9          10
 ........................................................................................................................
   1    9.998       8.950       7.891       6.819       5.730       4.622       3.495       2.348       1.183      2.5952E-03
   2    9.998       8.952       7.895       6.824       5.737       4.630       3.502       2.353       1.186      2.6007E-03
   3    9.998       8.955       7.901       6.835       5.752       4.648       3.517       2.363       1.191      2.6115E-03
   4    9.998       8.959       7.910       6.850       5.777       4.681       3.542       2.378       1.198      2.6266E-03
   5    9.998       8.962       7.919       6.869       5.813       4.743       3.578       2.396       1.205      2.6428E-03
   6    9.998       8.964       7.924       6.882       5.852       4.885       3.618       2.409       1.209      2.6523E-03
   7    9.998       8.963       7.921       6.872       5.816       4.746       3.581       2.398       1.206      2.6455E-03
   8    9.998       8.961       7.914       6.856       5.784       4.688       3.548       2.383       1.200      2.6324E-03
   9    9.998       8.958       7.908       6.844       5.763       4.660       3.528       2.371       1.195      2.6208E-03
  10    9.998       8.957       7.904       6.838       5.754       4.648       3.518       2.365       1.192      2.6144E-03
1
              HEAD IN LAYER   4 AT END OF TIME STEP  87 IN STRESS PERIOD    3
  ---------------------------------------------------------------------------

            1           2           3           4           5           6           7           8           9          10
 ........................................................................................................................
   1    9.998       8.949       7.890       6.818       5.729       4.621       3.494       2.347       1.182      2.5949E-03
   2    9.998       8.951       7.894       6.823       5.736       4.629       3.501       2.352       1.185      2.6004E-03
   3    9.998       8.954       7.900       6.834       5.751       4.647       3.516       2.362       1.189      2.6111E-03
   4    9.998       8.958       7.909       6.849       5.776       4.679       3.540       2.377       1.196      2.6262E-03
   5    9.998       8.962       7.918       6.868       5.811       4.738       3.576       2.395       1.204      2.6424E-03
   6    9.998       8.964       7.923       6.880       5.848       4.845       3.613       2.407       1.208      2.6518E-03
   7    9.998       8.963       7.920       6.870       5.815       4.742       3.579       2.397       1.205      2.6451E-03
   8    9.998       8.960       7.913       6.855       5.783       4.686       3.547       2.382       1.199      2.6319E-03
   9    9.998       8.957       7.907       6.843       5.762       4.658       3.526       2.370       1.194      2.6204E-03
  10    9.998       8.956       7.903       6.837       5.752       4.647       3.517       2.364       1.191      2.6141E-03
1
              HEAD IN LAYER   5 AT END OF TIME STEP  87 IN STRESS PERIOD    3
  ---------------------------------------------------------------------------

            1           2           3           4           5           6           7           8           9          10
 ........................................................................................................................
   1    9.998       8.949       7.890       6.817       5.728       4.621       3.493       2.346       1.182      2.5938E-03
   2    9.998       8.951       7.893       6.822       5.735       4.629       3.500       2.351       1.184      2.5992E-03
   3    9.998       8.954       7.900       6.833       5.750       4.646       3.515       2.361       1.189      2.6099E-03
   4    9.998       8.957       7.908       6.849       5.775       4.678       3.540       2.376       1.196      2.6250E-03
   5    9.998       8.961       7.917       6.867       5.810       4.736       3.575       2.394       1.203      2.6411E-03
   6    9.998       8.963       7.923       6.880       5.845       4.827       3.610       2.407       1.207      2.6505E-03
   7    9.998       8.962       7.919       6.870       5.814       4.739       3.578       2.396       1.204      2.6438E-03
   8    9.998       8.960       7.913       6.855       5.782       4.685       3.546       2.381       1.198      2.6307E-03
   9    9.998       8.957       7.906       6.842       5.762       4.658       3.526       2.369       1.193      2.6192E-03
  10    9.998       8.956       7.903       6.836       5.752       4.646       3.516       2.363       1.190      2.6129E-03

 HEAD WILL BE SAVED ON UNIT   51 AT END OF TIME STEP   87, STRESS PERIOD    3

 DRAWDOWN WILL BE SAVED ON UNIT   52 AT END OF TIME STEP   87, STRESS PERIOD    3
1
  VOLUMETRIC BUDGET FOR ENTIRE MODEL AT END OF TIME STEP   87, STRESS PERIOD   3
  ------------------------------------------------------------------------------

     CUMULATIVE VOLUMES      L**3       RATES FOR THIS TIME STEP      L**3/T
     ------------------                 ------------------------

           IN:                                      IN:
           ---                                      ---
             STORAGE =         862.0811               STORAGE =           3.4808
       CONSTANT HEAD =           0.0000         CONSTANT HEAD =           0.0000
               WELLS =       15220.0000                 WELLS =          60.0000
     HEAD DEP BOUNDS =      215587.2500       HEAD DEP BOUNDS =        1137.6962

            TOTAL IN =      231669.3281              TOTAL IN =        1201.1770

          OUT:                                     OUT:
          ----                                     ----
             STORAGE =        7464.7134               STORAGE =       2.4378E-02
       CONSTANT HEAD =           0.0000         CONSTANT HEAD =           0.0000
               WELLS =           0.0000                 WELLS =           0.0000
     HEAD DEP BOUNDS =      224198.2031       HEAD DEP BOUNDS =        1201.1112

           TOTAL OUT =      231662.9219             TOTAL OUT =        1201.1356

            IN - OUT =           6.4062              IN - OUT =       4.1382E-02

 PERCENT DISCREPANCY =           0.00     PERCENT DISCREPANCY =           0.00






         TIME SUMMARY AT END OF TIME STEP   87 IN STRESS PERIOD    3
                    SECONDS     MINUTES      HOURS       DAYS        YEARS
                    -----------------------------------------------------------
   TIME STEP LENGTH  86400.      1440.0      24.000      1.0000     2.73785E-03
 STRESS PERIOD TIME 7.51680E+06 1.25280E+05  2088.0      87.000     0.23819    
         TOTAL TIME 1.62432E+07 2.70720E+05  4512.0      188.00     0.51472    
1
 
 SOLVING FOR HEAD 

 OUTPUT CONTROL FOR STRESS PERIOD    3   TIME STEP   88
    SAVE HEAD FOR ALL LAYERS
    SAVE DRAWDOWN FOR ALL LAYERS
    SAVE BUDGET
    PRINT HEAD FOR ALL LAYERS
    PRINT BUDGET
 UBDSV1 SAVING "         STORAGE" ON UNIT  53 AT TIME STEP 88, STRESS PERIOD   3
 UBDSV2 SAVING "   CONSTANT HEAD" ON UNIT  53 AT TIME STEP 88, STRESS PERIOD   3
 UBDSV1 SAVING "FLOW RIGHT FACE " ON UNIT  53 AT TIME STEP 88, STRESS PERIOD   3
 UBDSV1 SAVING "FLOW FRONT FACE " ON UNIT  53 AT TIME STEP 88, STRESS PERIOD   3
 UBDSV1 SAVING "FLOW LOWER FACE " ON UNIT  53 AT TIME STEP 88, STRESS PERIOD   3

 SAVING SATURATED THICKNESS AND FLOW TERMS ON UNIT   54 FOR MT3DMS
 BY THE LINK-MT3DMS PACKAGE V7 AT TIME STEP   88, STRESS PERIOD    3

1
              HEAD IN LAYER   1 AT END OF TIME STEP  88 IN STRESS PERIOD    3
  ---------------------------------------------------------------------------

            1           2           3           4           5           6           7           8           9          10
 ........................................................................................................................
   1    9.998       8.953       7.895       6.822       5.733       4.626       3.499       2.352       1.187      1.5485E-03
   2    9.998       8.955       7.898       6.828       5.741       4.634       3.506       2.357       1.190      1.5519E-03
   3    9.998       8.958       7.905       6.838       5.756       4.652       3.521       2.367       1.195      1.5586E-03
   4    9.998       8.962       7.913       6.854       5.781       4.685       3.546       2.382       1.202      1.5680E-03
   5    9.998       8.966       7.922       6.872       5.817       4.751       3.583       2.401       1.209      1.5782E-03
   6    9.998       8.968       7.928       6.886       5.860       4.931       3.627       2.414       1.213      1.5842E-03
   7    9.998       8.967       7.924       6.875       5.821       4.755       3.586       2.403       1.210      1.5799E-03
   8    9.998       8.964       7.918       6.860       5.788       4.692       3.552       2.387       1.204      1.5716E-03
   9    9.998       8.961       7.911       6.848       5.767       4.664       3.532       2.375       1.199      1.5645E-03
  10    9.998       8.960       7.908       6.841       5.757       4.652       3.522       2.369       1.196      1.5605E-03
1
              HEAD IN LAYER   2 AT END OF TIME STEP  88 IN STRESS PERIOD    3
  ---------------------------------------------------------------------------

            1           2           3           4           5           6           7           8           9          10
 ........................................................................................................................
   1    9.998       8.952       7.893       6.820       5.731       4.624       3.497       2.350       1.185      2.5452E-03
   2    9.998       8.953       7.896       6.826       5.739       4.632       3.504       2.355       1.188      2.5506E-03
   3    9.998       8.956       7.903       6.836       5.754       4.650       3.519       2.365       1.193      2.5612E-03
   4    9.998       8.960       7.911       6.852       5.779       4.683       3.544       2.380       1.199      2.5761E-03
   5    9.998       8.964       7.920       6.870       5.815       4.748       3.581       2.398       1.207      2.5921E-03
   6    9.998       8.966       7.926       6.884       5.857       4.953       3.623       2.411       1.211      2.6015E-03
   7    9.998       8.965       7.922       6.873       5.818       4.752       3.584       2.401       1.208      2.5948E-03
   8    9.998       8.962       7.916       6.858       5.785       4.690       3.550       2.385       1.202      2.5818E-03
   9    9.998       8.960       7.909       6.846       5.765       4.662       3.529       2.373       1.197      2.5704E-03
  10    9.998       8.958       7.906       6.839       5.755       4.650       3.520       2.367       1.194      2.5641E-03
1
              HEAD IN LAYER   3 AT END OF TIME STEP  88 IN STRESS PERIOD    3
  ---------------------------------------------------------------------------

            1           2           3           4           5           6           7           8           9          10
 ........................................................................................................................
   1    9.998       8.950       7.891       6.819       5.730       4.622       3.495       2.348       1.183      2.5952E-03
   2    9.998       8.952       7.895       6.824       5.737       4.630       3.502       2.353       1.186      2.6007E-03
   3    9.998       8.955       7.901       6.835       5.752       4.648       3.517       2.363       1.191      2.6114E-03
   4    9.998       8.959       7.910       6.850       5.777       4.680       3.542       2.378       1.198      2.6266E-03
   5    9.998       8.962       7.919       6.869       5.813       4.743       3.578       2.396       1.205      2.6427E-03
   6    9.998       8.964       7.924       6.882       5.852       4.885       3.618       2.409       1.209      2.6523E-03
   7    9.998       8.963       7.921       6.871       5.816       4.746       3.581       2.398       1.206      2.6455E-03
   8    9.998       8.961       7.914       6.856       5.784       4.688       3.548       2.383       1.200      2.6323E-03
   9    9.998       8.958       7.908       6.844       5.763       4.660       3.527       2.371       1.195      2.6207E-03
  10    9.998       8.957       7.904       6.838       5.754       4.648       3.518       2.365       1.192      2.6144E-03
1
              HEAD IN LAYER   4 AT END OF TIME STEP  88 IN STRESS PERIOD    3
  ---------------------------------------------------------------------------

            1           2           3           4           5           6           7           8           9          10
 ........................................................................................................................
   1    9.998       8.949       7.890       6.818       5.729       4.621       3.494       2.347       1.182      2.5949E-03
   2    9.998       8.951       7.894       6.823       5.736       4.629       3.501       2.352       1.185      2.6004E-03
   3    9.998       8.954       7.900       6.834       5.751       4.647       3.516       2.362       1.189      2.6111E-03
   4    9.998       8.958       7.909       6.849       5.776       4.679       3.540       2.377       1.196      2.6262E-03
   5    9.998       8.962       7.918       6.868       5.811       4.738       3.576       2.395       1.204      2.6423E-03
   6    9.998       8.964       7.923       6.880       5.848       4.845       3.613       2.407       1.208      2.6518E-03
   7    9.998       8.963       7.920       6.870       5.814       4.742       3.579       2.397       1.205      2.6450E-03
   8    9.998       8.960       7.913       6.855       5.783       4.686       3.547       2.382       1.199      2.6319E-03
   9    9.998       8.957       7.907       6.843       5.762       4.658       3.526       2.370       1.194      2.6203E-03
  10    9.998       8.956       7.903       6.837       5.752       4.647       3.516       2.364       1.191      2.6140E-03
1
              HEAD IN LAYER   5 AT END OF TIME STEP  88 IN STRESS PERIOD    3
  ---------------------------------------------------------------------------

            1           2           3           4           5           6           7           8           9          10
 ........................................................................................................................
   1    9.998       8.949       7.890       6.817       5.728       4.621       3.493       2.346       1.182      2.5938E-03
   2    9.998       8.951       7.893       6.822       5.735       4.629       3.500       2.351       1.184      2.5992E-03
   3    9.998       8.954       7.900       6.833       5.750       4.646       3.515       2.361       1.189      2.6099E-03
   4    9.998       8.957       7.908       6.849       5.775       4.678       3.540       2.376       1.196      2.6250E-03
   5    9.998       8.961       7.917       6.867       5.810       4.736       3.575       2.394       1.203      2.6411E-03
   6    9.998       8.963       7.923       6.880       5.845       4.827       3.610       2.407       1.207      2.6505E-03
   7    9.998       8.962       7.919       6.870       5.814       4.739       3.578       2.396       1.204      2.6438E-03
   8    9.998       8.960       7.913       6.855       5.782       4.685       3.546       2.381       1.198      2.6307E-03
   9    9.998       8.957       7.906       6.842       5.761       4.658       3.526       2.369       1.193      2.6191E-03
  10    9.998       8.955       7.903       6.836       5.752       4.646       3.516       2.363       1.190      2.6128E-03

 HEAD WILL BE SAVED ON UNIT   51 AT END OF TIME STEP   88, STRESS PERIOD    3

 DRAWDOWN WILL BE SAVED ON UNIT   52 AT END OF TIME STEP   88, STRESS PERIOD    3
1
  VOLUMETRIC BUDGET FOR ENTIRE MODEL AT END OF TIME STEP   88, STRESS PERIOD   3
  ------------------------------------------------------------------------------

     CUMULATIVE VOLUMES      L**3       RATES FOR THIS TIME STEP      L**3/T
     ------------------                 ------------------------

           IN:                                      IN:
           ---                                      ---
             STORAGE =         865.5221               STORAGE =           3.4410
       CONSTANT HEAD =           0.0000         CONSTANT HEAD =           0.0000
               WELLS =       15280.0000                 WELLS =          60.0000
     HEAD DEP BOUNDS =      216724.9531       HEAD DEP BOUNDS =        1137.7106

            TOTAL IN =      232870.4688              TOTAL IN =        1201.1516

          OUT:                                     OUT:
          ----                                     ----
             STORAGE =        7464.7324               STORAGE =       1.8888E-02
       CONSTANT HEAD =           0.0000         CONSTANT HEAD =           0.0000
               WELLS =           0.0000                 WELLS =           0.0000
     HEAD DEP BOUNDS =      225399.2969       HEAD DEP BOUNDS =        1201.0885

           TOTAL OUT =      232864.0312             TOTAL OUT =        1201.1074

            IN - OUT =           6.4375              IN - OUT =       4.4189E-02

 PERCENT DISCREPANCY =           0.00     PERCENT DISCREPANCY =           0.00






         TIME SUMMARY AT END OF TIME STEP   88 IN STRESS PERIOD    3
                    SECONDS     MINUTES      HOURS       DAYS        YEARS
                    -----------------------------------------------------------
   TIME STEP LENGTH  86400.      1440.0      24.000      1.0000     2.73785E-03
 STRESS PERIOD TIME 7.60320E+06 1.26720E+05  2112.0      88.000     0.24093    
         TOTAL TIME 1.63296E+07 2.72160E+05  4536.0      189.00     0.51745    
1
 
 SOLVING FOR HEAD 

 OUTPUT CONTROL FOR STRESS PERIOD    3   TIME STEP   89
    SAVE HEAD FOR ALL LAYERS
    SAVE DRAWDOWN FOR ALL LAYERS
    SAVE BUDGET
    PRINT HEAD FOR ALL LAYERS
    PRINT BUDGET
 UBDSV1 SAVING "         STORAGE" ON UNIT  53 AT TIME STEP 89, STRESS PERIOD   3
 UBDSV2 SAVING "   CONSTANT HEAD" ON UNIT  53 AT TIME STEP 89, STRESS PERIOD   3
 UBDSV1 SAVING "FLOW RIGHT FACE " ON UNIT  53 AT TIME STEP 89, STRESS PERIOD   3
 UBDSV1 SAVING "FLOW FRONT FACE " ON UNIT  53 AT TIME STEP 89, STRESS PERIOD   3
 UBDSV1 SAVING "FLOW LOWER FACE " ON UNIT  53 AT TIME STEP 89, STRESS PERIOD   3

 SAVING SATURATED THICKNESS AND FLOW TERMS ON UNIT   54 FOR MT3DMS
 BY THE LINK-MT3DMS PACKAGE V7 AT TIME STEP   89, STRESS PERIOD    3

1
              HEAD IN LAYER   1 AT END OF TIME STEP  89 IN STRESS PERIOD    3
  ---------------------------------------------------------------------------

            1           2           3           4           5           6           7           8           9          10
 ........................................................................................................................
   1    9.998       8.953       7.895       6.822       5.733       4.626       3.499       2.352       1.187      1.5485E-03
   2    9.998       8.955       7.898       6.828       5.741       4.634       3.506       2.357       1.190      1.5518E-03
   3    9.998       8.958       7.905       6.838       5.756       4.652       3.521       2.367       1.195      1.5586E-03
   4    9.998       8.962       7.913       6.854       5.781       4.685       3.546       2.382       1.202      1.5680E-03
   5    9.998       8.966       7.922       6.872       5.817       4.751       3.583       2.401       1.209      1.5781E-03
   6    9.998       8.967       7.928       6.885       5.860       4.931       3.627       2.414       1.213      1.5841E-03
   7    9.998       8.967       7.924       6.875       5.820       4.754       3.586       2.403       1.210      1.5799E-03
   8    9.998       8.964       7.918       6.860       5.788       4.692       3.552       2.387       1.204      1.5716E-03
   9    9.998       8.961       7.911       6.848       5.767       4.664       3.532       2.375       1.199      1.5644E-03
  10    9.998       8.960       7.908       6.841       5.757       4.652       3.522       2.369       1.196      1.5604E-03
1
              HEAD IN LAYER   2 AT END OF TIME STEP  89 IN STRESS PERIOD    3
  ---------------------------------------------------------------------------

            1           2           3           4           5           6           7           8           9          10
 ........................................................................................................................
   1    9.998       8.952       7.893       6.820       5.731       4.624       3.497       2.350       1.185      2.5452E-03
   2    9.998       8.953       7.896       6.826       5.739       4.632       3.504       2.355       1.188      2.5506E-03
   3    9.998       8.956       7.903       6.836       5.754       4.650       3.519       2.365       1.192      2.5612E-03
   4    9.998       8.960       7.911       6.852       5.779       4.682       3.544       2.380       1.199      2.5761E-03
   5    9.998       8.964       7.920       6.870       5.815       4.748       3.580       2.398       1.207      2.5920E-03
   6    9.998       8.966       7.926       6.883       5.857       4.952       3.623       2.411       1.211      2.6014E-03
   7    9.998       8.965       7.922       6.873       5.818       4.751       3.584       2.401       1.208      2.5947E-03
   8    9.998       8.962       7.916       6.858       5.785       4.690       3.550       2.385       1.202      2.5817E-03
   9    9.998       8.960       7.909       6.846       5.765       4.661       3.529       2.373       1.197      2.5703E-03
  10    9.998       8.958       7.906       6.839       5.755       4.650       3.520       2.367       1.194      2.5641E-03
1
              HEAD IN LAYER   3 AT END OF TIME STEP  89 IN STRESS PERIOD    3
  ---------------------------------------------------------------------------

            1           2           3           4           5           6           7           8           9          10
 ........................................................................................................................
   1    9.998       8.950       7.891       6.819       5.730       4.622       3.495       2.348       1.183      2.5952E-03
   2    9.998       8.952       7.895       6.824       5.737       4.630       3.502       2.353       1.186      2.6007E-03
   3    9.998       8.955       7.901       6.835       5.752       4.648       3.517       2.363       1.191      2.6114E-03
   4    9.998       8.959       7.910       6.850       5.777       4.680       3.542       2.378       1.198      2.6265E-03
   5    9.998       8.962       7.919       6.869       5.813       4.743       3.578       2.396       1.205      2.6427E-03
   6    9.998       8.964       7.924       6.882       5.852       4.885       3.618       2.409       1.209      2.6522E-03
   7    9.998       8.963       7.921       6.871       5.816       4.746       3.581       2.398       1.206      2.6454E-03
   8    9.998       8.961       7.914       6.856       5.784       4.688       3.548       2.383       1.200      2.6322E-03
   9    9.998       8.958       7.908       6.844       5.763       4.660       3.527       2.371       1.195      2.6207E-03
  10    9.998       8.957       7.904       6.838       5.753       4.648       3.518       2.365       1.192      2.6143E-03
1
              HEAD IN LAYER   4 AT END OF TIME STEP  89 IN STRESS PERIOD    3
  ---------------------------------------------------------------------------

            1           2           3           4           5           6           7           8           9          10
 ........................................................................................................................
   1    9.998       8.949       7.890       6.818       5.729       4.621       3.494       2.347       1.182      2.5949E-03
   2    9.998       8.951       7.894       6.823       5.736       4.629       3.501       2.352       1.185      2.6003E-03
   3    9.998       8.954       7.900       6.834       5.751       4.647       3.516       2.362       1.189      2.6110E-03
   4    9.998       8.958       7.909       6.849       5.776       4.679       3.540       2.377       1.196      2.6261E-03
   5    9.998       8.962       7.918       6.867       5.811       4.738       3.576       2.395       1.204      2.6422E-03
   6    9.998       8.964       7.923       6.880       5.848       4.845       3.613       2.407       1.208      2.6517E-03
   7    9.998       8.963       7.920       6.870       5.814       4.742       3.579       2.397       1.205      2.6449E-03
   8    9.998       8.960       7.913       6.855       5.782       4.686       3.547       2.382       1.199      2.6318E-03
   9    9.998       8.957       7.907       6.843       5.762       4.658       3.526       2.370       1.194      2.6203E-03
  10    9.998       8.956       7.903       6.837       5.752       4.647       3.516       2.363       1.191      2.6140E-03
1
              HEAD IN LAYER   5 AT END OF TIME STEP  89 IN STRESS PERIOD    3
  ---------------------------------------------------------------------------

            1           2           3           4           5           6           7           8           9          10
 ........................................................................................................................
   1    9.998       8.949       7.890       6.817       5.728       4.621       3.493       2.346       1.182      2.5938E-03
   2    9.998       8.951       7.893       6.822       5.735       4.629       3.500       2.351       1.184      2.5992E-03
   3    9.998       8.954       7.900       6.833       5.750       4.646       3.515       2.361       1.189      2.6099E-03
   4    9.998       8.957       7.908       6.849       5.775       4.678       3.540       2.376       1.196      2.6249E-03
   5    9.998       8.961       7.917       6.867       5.810       4.736       3.575       2.394       1.203      2.6410E-03
   6    9.998       8.963       7.923       6.880       5.845       4.827       3.610       2.406       1.207      2.6504E-03
   7    9.998       8.962       7.919       6.870       5.814       4.739       3.578       2.396       1.204      2.6437E-03
   8    9.998       8.960       7.913       6.854       5.782       4.685       3.546       2.381       1.198      2.6306E-03
   9    9.998       8.957       7.906       6.842       5.761       4.658       3.525       2.369       1.193      2.6191E-03
  10    9.998       8.955       7.903       6.836       5.752       4.646       3.516       2.363       1.190      2.6128E-03

 HEAD WILL BE SAVED ON UNIT   51 AT END OF TIME STEP   89, STRESS PERIOD    3

 DRAWDOWN WILL BE SAVED ON UNIT   52 AT END OF TIME STEP   89, STRESS PERIOD    3
1
  VOLUMETRIC BUDGET FOR ENTIRE MODEL AT END OF TIME STEP   89, STRESS PERIOD   3
  ------------------------------------------------------------------------------

     CUMULATIVE VOLUMES      L**3       RATES FOR THIS TIME STEP      L**3/T
     ------------------                 ------------------------

           IN:                                      IN:
           ---                                      ---
             STORAGE =         868.9196               STORAGE =           3.3975
       CONSTANT HEAD =           0.0000         CONSTANT HEAD =           0.0000
               WELLS =       15340.0000                 WELLS =          60.0000
     HEAD DEP BOUNDS =      217862.6719       HEAD DEP BOUNDS =        1137.7250

            TOTAL IN =      234071.5938              TOTAL IN =        1201.1224

          OUT:                                     OUT:
          ----                                     ----
             STORAGE =        7464.7466               STORAGE =       1.4203E-02
       CONSTANT HEAD =           0.0000         CONSTANT HEAD =           0.0000
               WELLS =           0.0000                 WELLS =           0.0000
     HEAD DEP BOUNDS =      226600.3594       HEAD DEP BOUNDS =        1201.0652

           TOTAL OUT =      234065.1094             TOTAL OUT =        1201.0793

            IN - OUT =           6.4844              IN - OUT =       4.3091E-02

 PERCENT DISCREPANCY =           0.00     PERCENT DISCREPANCY =           0.00






         TIME SUMMARY AT END OF TIME STEP   89 IN STRESS PERIOD    3
                    SECONDS     MINUTES      HOURS       DAYS        YEARS
                    -----------------------------------------------------------
   TIME STEP LENGTH  86400.      1440.0      24.000      1.0000     2.73785E-03
 STRESS PERIOD TIME 7.68960E+06 1.28160E+05  2136.0      89.000     0.24367    
         TOTAL TIME 1.64160E+07 2.73600E+05  4560.0      190.00     0.52019    
1
 
 SOLVING FOR HEAD 

 OUTPUT CONTROL FOR STRESS PERIOD    3   TIME STEP   90
    SAVE HEAD FOR ALL LAYERS
    SAVE DRAWDOWN FOR ALL LAYERS
    SAVE BUDGET
    PRINT HEAD FOR ALL LAYERS
    PRINT BUDGET
 UBDSV1 SAVING "         STORAGE" ON UNIT  53 AT TIME STEP 90, STRESS PERIOD   3
 UBDSV2 SAVING "   CONSTANT HEAD" ON UNIT  53 AT TIME STEP 90, STRESS PERIOD   3
 UBDSV1 SAVING "FLOW RIGHT FACE " ON UNIT  53 AT TIME STEP 90, STRESS PERIOD   3
 UBDSV1 SAVING "FLOW FRONT FACE " ON UNIT  53 AT TIME STEP 90, STRESS PERIOD   3
 UBDSV1 SAVING "FLOW LOWER FACE " ON UNIT  53 AT TIME STEP 90, STRESS PERIOD   3

 SAVING SATURATED THICKNESS AND FLOW TERMS ON UNIT   54 FOR MT3DMS
 BY THE LINK-MT3DMS PACKAGE V7 AT TIME STEP   90, STRESS PERIOD    3

1
              HEAD IN LAYER   1 AT END OF TIME STEP  90 IN STRESS PERIOD    3
  ---------------------------------------------------------------------------

            1           2           3           4           5           6           7           8           9          10
 ........................................................................................................................
   1    9.998       8.953       7.895       6.822       5.733       4.626       3.499       2.352       1.187      1.5485E-03
   2    9.998       8.955       7.898       6.828       5.741       4.634       3.506       2.357       1.190      1.5518E-03
   3    9.998       8.958       7.905       6.838       5.756       4.652       3.521       2.367       1.195      1.5586E-03
   4    9.998       8.962       7.913       6.854       5.781       4.685       3.546       2.382       1.202      1.5679E-03
   5    9.998       8.966       7.922       6.872       5.817       4.751       3.583       2.400       1.209      1.5781E-03
   6    9.998       8.967       7.927       6.885       5.859       4.931       3.627       2.414       1.213      1.5841E-03
   7    9.998       8.967       7.924       6.875       5.820       4.754       3.586       2.403       1.210      1.5798E-03
   8    9.998       8.964       7.918       6.860       5.787       4.692       3.552       2.387       1.204      1.5715E-03
   9    9.998       8.961       7.911       6.848       5.767       4.664       3.531       2.375       1.199      1.5643E-03
  10    9.998       8.960       7.908       6.841       5.757       4.652       3.522       2.369       1.196      1.5604E-03
1
              HEAD IN LAYER   2 AT END OF TIME STEP  90 IN STRESS PERIOD    3
  ---------------------------------------------------------------------------

            1           2           3           4           5           6           7           8           9          10
 ........................................................................................................................
   1    9.998       8.952       7.893       6.820       5.731       4.624       3.497       2.350       1.185      2.5452E-03
   2    9.998       8.953       7.896       6.826       5.739       4.632       3.504       2.355       1.188      2.5506E-03
   3    9.998       8.956       7.903       6.836       5.754       4.650       3.519       2.365       1.192      2.5611E-03
   4    9.998       8.960       7.911       6.852       5.778       4.682       3.544       2.380       1.199      2.5760E-03
   5    9.998       8.964       7.920       6.870       5.815       4.748       3.580       2.398       1.207      2.5920E-03
   6    9.998       8.966       7.926       6.883       5.857       4.952       3.623       2.411       1.211      2.6013E-03
   7    9.998       8.965       7.922       6.873       5.818       4.751       3.583       2.400       1.208      2.5946E-03
   8    9.998       8.962       7.916       6.858       5.785       4.690       3.550       2.385       1.202      2.5816E-03
   9    9.998       8.960       7.909       6.846       5.765       4.661       3.529       2.373       1.197      2.5703E-03
  10    9.998       8.958       7.906       6.839       5.755       4.650       3.520       2.367       1.194      2.5640E-03
1
              HEAD IN LAYER   3 AT END OF TIME STEP  90 IN STRESS PERIOD    3
  ---------------------------------------------------------------------------

            1           2           3           4           5           6           7           8           9          10
 ........................................................................................................................
   1    9.998       8.950       7.891       6.819       5.730       4.622       3.495       2.348       1.183      2.5952E-03
   2    9.998       8.952       7.895       6.824       5.737       4.630       3.502       2.353       1.186      2.6006E-03
   3    9.998       8.955       7.901       6.835       5.752       4.648       3.517       2.363       1.191      2.6114E-03
   4    9.998       8.959       7.910       6.850       5.777       4.680       3.542       2.378       1.198      2.6265E-03
   5    9.998       8.962       7.919       6.869       5.813       4.743       3.578       2.396       1.205      2.6426E-03
   6    9.998       8.964       7.924       6.882       5.852       4.885       3.618       2.409       1.209      2.6521E-03
   7    9.998       8.963       7.921       6.871       5.816       4.746       3.581       2.398       1.206      2.6453E-03
   8    9.998       8.961       7.914       6.856       5.784       4.687       3.548       2.383       1.200      2.6322E-03
   9    9.998       8.958       7.908       6.844       5.763       4.660       3.527       2.371       1.195      2.6206E-03
  10    9.998       8.957       7.904       6.838       5.753       4.648       3.518       2.365       1.192      2.6143E-03
1
              HEAD IN LAYER   4 AT END OF TIME STEP  90 IN STRESS PERIOD    3
  ---------------------------------------------------------------------------

            1           2           3           4           5           6           7           8           9          10
 ........................................................................................................................
   1    9.998       8.949       7.890       6.818       5.729       4.621       3.494       2.347       1.182      2.5949E-03
   2    9.998       8.951       7.894       6.823       5.736       4.629       3.501       2.352       1.185      2.6003E-03
   3    9.998       8.954       7.900       6.834       5.751       4.647       3.516       2.362       1.189      2.6110E-03
   4    9.998       8.958       7.909       6.849       5.776       4.679       3.540       2.377       1.196      2.6261E-03
   5    9.998       8.962       7.918       6.867       5.811       4.738       3.576       2.395       1.204      2.6422E-03
   6    9.998       8.964       7.923       6.880       5.848       4.845       3.613       2.407       1.208      2.6516E-03
   7    9.998       8.963       7.920       6.870       5.814       4.742       3.579       2.397       1.205      2.6449E-03
   8    9.998       8.960       7.913       6.855       5.782       4.686       3.547       2.382       1.199      2.6317E-03
   9    9.998       8.957       7.907       6.843       5.762       4.658       3.526       2.370       1.194      2.6202E-03
  10    9.998       8.956       7.903       6.837       5.752       4.647       3.516       2.363       1.191      2.6139E-03
1
              HEAD IN LAYER   5 AT END OF TIME STEP  90 IN STRESS PERIOD    3
  ---------------------------------------------------------------------------

            1           2           3           4           5           6           7           8           9          10
 ........................................................................................................................
   1    9.998       8.949       7.890       6.817       5.728       4.621       3.493       2.346       1.182      2.5938E-03
   2    9.998       8.951       7.893       6.822       5.735       4.629       3.500       2.351       1.184      2.5992E-03
   3    9.998       8.954       7.900       6.833       5.750       4.646       3.515       2.361       1.189      2.6098E-03
   4    9.998       8.957       7.908       6.849       5.775       4.678       3.540       2.376       1.196      2.6249E-03
   5    9.998       8.961       7.917       6.867       5.810       4.736       3.575       2.394       1.203      2.6409E-03
   6    9.998       8.963       7.922       6.880       5.845       4.827       3.610       2.406       1.207      2.6503E-03
   7    9.998       8.962       7.919       6.870       5.813       4.739       3.578       2.396       1.204      2.6436E-03
   8    9.998       8.960       7.913       6.854       5.782       4.685       3.546       2.381       1.198      2.6305E-03
   9    9.998       8.957       7.906       6.842       5.761       4.658       3.525       2.369       1.193      2.6190E-03
  10    9.998       8.955       7.903       6.836       5.752       4.646       3.516       2.363       1.190      2.6127E-03

 HEAD WILL BE SAVED ON UNIT   51 AT END OF TIME STEP   90, STRESS PERIOD    3

 DRAWDOWN WILL BE SAVED ON UNIT   52 AT END OF TIME STEP   90, STRESS PERIOD    3
1
  VOLUMETRIC BUDGET FOR ENTIRE MODEL AT END OF TIME STEP   90, STRESS PERIOD   3
  ------------------------------------------------------------------------------

     CUMULATIVE VOLUMES      L**3       RATES FOR THIS TIME STEP      L**3/T
     ------------------                 ------------------------

           IN:                                      IN:
           ---                                      ---
             STORAGE =         872.2772               STORAGE =           3.3576
       CONSTANT HEAD =           0.0000         CONSTANT HEAD =           0.0000
               WELLS =       15400.0000                 WELLS =          60.0000
     HEAD DEP BOUNDS =      219000.4062       HEAD DEP BOUNDS =        1137.7394

            TOTAL IN =      235272.6875              TOTAL IN =        1201.0970

          OUT:                                     OUT:
          ----                                     ----
             STORAGE =        7464.7578               STORAGE =       1.1249E-02
       CONSTANT HEAD =           0.0000         CONSTANT HEAD =           0.0000
               WELLS =           0.0000                 WELLS =           0.0000
     HEAD DEP BOUNDS =      227801.4062       HEAD DEP BOUNDS =        1201.0431

           TOTAL OUT =      235266.1562             TOTAL OUT =        1201.0543

            IN - OUT =           6.5312              IN - OUT =       4.2725E-02

 PERCENT DISCREPANCY =           0.00     PERCENT DISCREPANCY =           0.00






         TIME SUMMARY AT END OF TIME STEP   90 IN STRESS PERIOD    3
                    SECONDS     MINUTES      HOURS       DAYS        YEARS
                    -----------------------------------------------------------
   TIME STEP LENGTH  86400.      1440.0      24.000      1.0000     2.73785E-03
 STRESS PERIOD TIME 7.77600E+06 1.29600E+05  2160.0      90.000     0.24641    
         TOTAL TIME 1.65024E+07 2.75040E+05  4584.0      191.00     0.52293    
1
 
 SOLVING FOR HEAD 

 OUTPUT CONTROL FOR STRESS PERIOD    3   TIME STEP   91
    SAVE HEAD FOR ALL LAYERS
    SAVE DRAWDOWN FOR ALL LAYERS
    SAVE BUDGET
    PRINT HEAD FOR ALL LAYERS
    PRINT BUDGET
 UBDSV1 SAVING "         STORAGE" ON UNIT  53 AT TIME STEP 91, STRESS PERIOD   3
 UBDSV2 SAVING "   CONSTANT HEAD" ON UNIT  53 AT TIME STEP 91, STRESS PERIOD   3
 UBDSV1 SAVING "FLOW RIGHT FACE " ON UNIT  53 AT TIME STEP 91, STRESS PERIOD   3
 UBDSV1 SAVING "FLOW FRONT FACE " ON UNIT  53 AT TIME STEP 91, STRESS PERIOD   3
 UBDSV1 SAVING "FLOW LOWER FACE " ON UNIT  53 AT TIME STEP 91, STRESS PERIOD   3

 SAVING SATURATED THICKNESS AND FLOW TERMS ON UNIT   54 FOR MT3DMS
 BY THE LINK-MT3DMS PACKAGE V7 AT TIME STEP   91, STRESS PERIOD    3

1
              HEAD IN LAYER   1 AT END OF TIME STEP  91 IN STRESS PERIOD    3
  ---------------------------------------------------------------------------

            1           2           3           4           5           6           7           8           9          10
 ........................................................................................................................
   1    9.998       8.953       7.895       6.822       5.733       4.626       3.499       2.352       1.187      1.5485E-03
   2    9.998       8.955       7.898       6.828       5.741       4.634       3.506       2.357       1.190      1.5518E-03
   3    9.998       8.958       7.905       6.838       5.756       4.652       3.521       2.367       1.195      1.5585E-03
   4    9.998       8.962       7.913       6.854       5.780       4.685       3.546       2.382       1.201      1.5679E-03
   5    9.998       8.965       7.922       6.872       5.817       4.751       3.583       2.400       1.209      1.5781E-03
   6    9.998       8.967       7.927       6.885       5.859       4.931       3.626       2.414       1.213      1.5840E-03
   7    9.998       8.967       7.924       6.875       5.820       4.754       3.586       2.403       1.210      1.5798E-03
   8    9.998       8.964       7.917       6.860       5.787       4.692       3.552       2.387       1.204      1.5715E-03
   9    9.998       8.961       7.911       6.848       5.767       4.663       3.531       2.375       1.199      1.5643E-03
  10    9.998       8.960       7.908       6.841       5.757       4.652       3.522       2.369       1.196      1.5604E-03
1
              HEAD IN LAYER   2 AT END OF TIME STEP  91 IN STRESS PERIOD    3
  ---------------------------------------------------------------------------

            1           2           3           4           5           6           7           8           9          10
 ........................................................................................................................
   1    9.998       8.952       7.893       6.820       5.731       4.624       3.497       2.350       1.185      2.5452E-03
   2    9.998       8.953       7.896       6.826       5.739       4.632       3.504       2.355       1.188      2.5506E-03
   3    9.998       8.956       7.903       6.836       5.754       4.650       3.519       2.365       1.192      2.5611E-03
   4    9.998       8.960       7.911       6.852       5.778       4.682       3.544       2.380       1.199      2.5760E-03
   5    9.998       8.964       7.920       6.870       5.815       4.748       3.580       2.398       1.207      2.5919E-03
   6    9.998       8.966       7.926       6.883       5.857       4.952       3.623       2.411       1.211      2.6013E-03
   7    9.998       8.965       7.922       6.873       5.818       4.751       3.583       2.400       1.208      2.5946E-03
   8    9.998       8.962       7.916       6.858       5.785       4.689       3.550       2.385       1.202      2.5816E-03
   9    9.998       8.960       7.909       6.846       5.765       4.661       3.529       2.373       1.197      2.5702E-03
  10    9.998       8.958       7.906       6.839       5.755       4.649       3.520       2.367       1.194      2.5640E-03
1
              HEAD IN LAYER   3 AT END OF TIME STEP  91 IN STRESS PERIOD    3
  ---------------------------------------------------------------------------

            1           2           3           4           5           6           7           8           9          10
 ........................................................................................................................
   1    9.998       8.950       7.891       6.819       5.730       4.622       3.495       2.348       1.183      2.5952E-03
   2    9.998       8.952       7.895       6.824       5.737       4.630       3.502       2.353       1.186      2.6006E-03
   3    9.998       8.955       7.901       6.835       5.752       4.648       3.517       2.363       1.191      2.6113E-03
   4    9.998       8.959       7.910       6.850       5.777       4.680       3.542       2.378       1.197      2.6264E-03
   5    9.998       8.962       7.919       6.869       5.813       4.743       3.578       2.396       1.205      2.6425E-03
   6    9.998       8.964       7.924       6.882       5.852       4.885       3.617       2.409       1.209      2.6520E-03
   7    9.998       8.963       7.921       6.871       5.816       4.746       3.581       2.398       1.206      2.6453E-03
   8    9.998       8.961       7.914       6.856       5.784       4.687       3.548       2.383       1.200      2.6321E-03
   9    9.998       8.958       7.908       6.844       5.763       4.659       3.527       2.371       1.195      2.6206E-03
  10    9.998       8.957       7.904       6.838       5.753       4.648       3.518       2.365       1.192      2.6142E-03
1
              HEAD IN LAYER   4 AT END OF TIME STEP  91 IN STRESS PERIOD    3
  ---------------------------------------------------------------------------

            1           2           3           4           5           6           7           8           9          10
 ........................................................................................................................
   1    9.998       8.949       7.890       6.818       5.729       4.621       3.494       2.347       1.182      2.5949E-03
   2    9.998       8.951       7.894       6.823       5.736       4.629       3.501       2.352       1.185      2.6003E-03
   3    9.998       8.954       7.900       6.834       5.751       4.647       3.516       2.362       1.189      2.6110E-03
   4    9.998       8.958       7.909       6.849       5.775       4.679       3.540       2.377       1.196      2.6260E-03
   5    9.998       8.962       7.918       6.867       5.811       4.738       3.576       2.395       1.204      2.6421E-03
   6    9.998       8.963       7.923       6.880       5.847       4.845       3.613       2.407       1.208      2.6515E-03
   7    9.998       8.963       7.920       6.870       5.814       4.741       3.579       2.397       1.205      2.6448E-03
   8    9.998       8.960       7.913       6.855       5.782       4.686       3.547       2.381       1.199      2.6317E-03
   9    9.998       8.957       7.907       6.843       5.762       4.658       3.526       2.370       1.194      2.6202E-03
  10    9.998       8.956       7.903       6.837       5.752       4.646       3.516       2.363       1.191      2.6139E-03
1
              HEAD IN LAYER   5 AT END OF TIME STEP  91 IN STRESS PERIOD    3
  ---------------------------------------------------------------------------

            1           2           3           4           5           6           7           8           9          10
 ........................................................................................................................
   1    9.998       8.949       7.890       6.817       5.728       4.621       3.493       2.346       1.182      2.5937E-03
   2    9.998       8.951       7.893       6.822       5.735       4.629       3.500       2.351       1.184      2.5991E-03
   3    9.998       8.954       7.900       6.833       5.750       4.646       3.515       2.361       1.189      2.6098E-03
   4    9.998       8.957       7.908       6.849       5.775       4.678       3.540       2.376       1.196      2.6248E-03
   5    9.998       8.961       7.917       6.867       5.810       4.736       3.575       2.394       1.203      2.6409E-03
   6    9.998       8.963       7.922       6.880       5.845       4.827       3.610       2.406       1.207      2.6503E-03
   7    9.998       8.962       7.919       6.870       5.813       4.739       3.578       2.396       1.204      2.6436E-03
   8    9.998       8.960       7.912       6.854       5.782       4.685       3.546       2.381       1.198      2.6305E-03
   9    9.998       8.957       7.906       6.842       5.761       4.658       3.525       2.369       1.193      2.6190E-03
  10    9.998       8.955       7.903       6.836       5.752       4.646       3.516       2.363       1.190      2.6127E-03

 HEAD WILL BE SAVED ON UNIT   51 AT END OF TIME STEP   91, STRESS PERIOD    3

 DRAWDOWN WILL BE SAVED ON UNIT   52 AT END OF TIME STEP   91, STRESS PERIOD    3
1
  VOLUMETRIC BUDGET FOR ENTIRE MODEL AT END OF TIME STEP   91, STRESS PERIOD   3
  ------------------------------------------------------------------------------

     CUMULATIVE VOLUMES      L**3       RATES FOR THIS TIME STEP      L**3/T
     ------------------                 ------------------------

           IN:                                      IN:
           ---                                      ---
             STORAGE =         875.5988               STORAGE =           3.3216
       CONSTANT HEAD =           0.0000         CONSTANT HEAD =           0.0000
               WELLS =       15460.0000                 WELLS =          60.0000
     HEAD DEP BOUNDS =      220138.1562       HEAD DEP BOUNDS =        1137.7537

            TOTAL IN =      236473.7500              TOTAL IN =        1201.0752

          OUT:                                     OUT:
          ----                                     ----
             STORAGE =        7464.7651               STORAGE =       7.3280E-03
       CONSTANT HEAD =           0.0000         CONSTANT HEAD =           0.0000
               WELLS =           0.0000                 WELLS =           0.0000
     HEAD DEP BOUNDS =      229002.4219       HEAD DEP BOUNDS =        1201.0211

           TOTAL OUT =      236467.1875             TOTAL OUT =        1201.0284

            IN - OUT =           6.5625              IN - OUT =       4.6753E-02

 PERCENT DISCREPANCY =           0.00     PERCENT DISCREPANCY =           0.00






         TIME SUMMARY AT END OF TIME STEP   91 IN STRESS PERIOD    3
                    SECONDS     MINUTES      HOURS       DAYS        YEARS
                    -----------------------------------------------------------
   TIME STEP LENGTH  86400.      1440.0      24.000      1.0000     2.73785E-03
 STRESS PERIOD TIME 7.86240E+06 1.31040E+05  2184.0      91.000     0.24914    
         TOTAL TIME 1.65888E+07 2.76480E+05  4608.0      192.00     0.52567    
1
 
 SOLVING FOR HEAD 

 OUTPUT CONTROL FOR STRESS PERIOD    3   TIME STEP   92
    SAVE HEAD FOR ALL LAYERS
    SAVE DRAWDOWN FOR ALL LAYERS
    SAVE BUDGET
    PRINT HEAD FOR ALL LAYERS
    PRINT BUDGET
 UBDSV1 SAVING "         STORAGE" ON UNIT  53 AT TIME STEP 92, STRESS PERIOD   3
 UBDSV2 SAVING "   CONSTANT HEAD" ON UNIT  53 AT TIME STEP 92, STRESS PERIOD   3
 UBDSV1 SAVING "FLOW RIGHT FACE " ON UNIT  53 AT TIME STEP 92, STRESS PERIOD   3
 UBDSV1 SAVING "FLOW FRONT FACE " ON UNIT  53 AT TIME STEP 92, STRESS PERIOD   3
 UBDSV1 SAVING "FLOW LOWER FACE " ON UNIT  53 AT TIME STEP 92, STRESS PERIOD   3

 SAVING SATURATED THICKNESS AND FLOW TERMS ON UNIT   54 FOR MT3DMS
 BY THE LINK-MT3DMS PACKAGE V7 AT TIME STEP   92, STRESS PERIOD    3

1
              HEAD IN LAYER   1 AT END OF TIME STEP  92 IN STRESS PERIOD    3
  ---------------------------------------------------------------------------

            1           2           3           4           5           6           7           8           9          10
 ........................................................................................................................
   1    9.998       8.953       7.895       6.822       5.733       4.626       3.499       2.352       1.187      1.5485E-03
   2    9.998       8.955       7.898       6.828       5.741       4.634       3.506       2.357       1.190      1.5518E-03
   3    9.998       8.958       7.905       6.838       5.756       4.652       3.521       2.367       1.195      1.5585E-03
   4    9.998       8.962       7.913       6.854       5.780       4.685       3.546       2.382       1.201      1.5679E-03
   5    9.998       8.965       7.922       6.872       5.817       4.751       3.583       2.400       1.209      1.5780E-03
   6    9.998       8.967       7.927       6.885       5.859       4.931       3.626       2.414       1.213      1.5840E-03
   7    9.998       8.967       7.924       6.875       5.820       4.754       3.586       2.403       1.210      1.5797E-03
   8    9.998       8.964       7.917       6.860       5.787       4.692       3.552       2.387       1.204      1.5715E-03
   9    9.998       8.961       7.911       6.848       5.767       4.663       3.531       2.375       1.199      1.5643E-03
  10    9.998       8.960       7.908       6.841       5.757       4.652       3.522       2.369       1.196      1.5603E-03
1
              HEAD IN LAYER   2 AT END OF TIME STEP  92 IN STRESS PERIOD    3
  ---------------------------------------------------------------------------

            1           2           3           4           5           6           7           8           9          10
 ........................................................................................................................
   1    9.998       8.952       7.893       6.820       5.731       4.624       3.497       2.350       1.185      2.5452E-03
   2    9.998       8.953       7.896       6.826       5.739       4.632       3.504       2.355       1.188      2.5505E-03
   3    9.998       8.956       7.903       6.836       5.754       4.650       3.519       2.365       1.192      2.5611E-03
   4    9.998       8.960       7.911       6.852       5.778       4.682       3.544       2.380       1.199      2.5759E-03
   5    9.998       8.964       7.920       6.870       5.815       4.748       3.580       2.398       1.207      2.5918E-03
   6    9.998       8.966       7.925       6.883       5.857       4.952       3.623       2.411       1.211      2.6012E-03
   7    9.998       8.965       7.922       6.873       5.818       4.751       3.583       2.400       1.208      2.5945E-03
   8    9.998       8.962       7.916       6.858       5.785       4.689       3.550       2.385       1.202      2.5815E-03
   9    9.998       8.960       7.909       6.845       5.765       4.661       3.529       2.373       1.197      2.5702E-03
  10    9.998       8.958       7.906       6.839       5.755       4.649       3.519       2.367       1.194      2.5639E-03
1
              HEAD IN LAYER   3 AT END OF TIME STEP  92 IN STRESS PERIOD    3
  ---------------------------------------------------------------------------

            1           2           3           4           5           6           7           8           9          10
 ........................................................................................................................
   1    9.998       8.950       7.891       6.819       5.730       4.622       3.495       2.348       1.183      2.5952E-03
   2    9.998       8.952       7.895       6.824       5.737       4.630       3.502       2.353       1.186      2.6006E-03
   3    9.998       8.955       7.901       6.835       5.752       4.648       3.517       2.363       1.191      2.6113E-03
   4    9.998       8.959       7.910       6.850       5.777       4.680       3.542       2.378       1.197      2.6264E-03
   5    9.998       8.962       7.919       6.868       5.813       4.743       3.578       2.396       1.205      2.6425E-03
   6    9.998       8.964       7.924       6.881       5.852       4.885       3.617       2.409       1.209      2.6520E-03
   7    9.998       8.963       7.921       6.871       5.816       4.746       3.581       2.398       1.206      2.6452E-03
   8    9.998       8.961       7.914       6.856       5.783       4.687       3.548       2.383       1.200      2.6320E-03
   9    9.998       8.958       7.908       6.844       5.763       4.659       3.527       2.371       1.195      2.6205E-03
  10    9.998       8.957       7.904       6.838       5.753       4.648       3.518       2.365       1.192      2.6142E-03
1
              HEAD IN LAYER   4 AT END OF TIME STEP  92 IN STRESS PERIOD    3
  ---------------------------------------------------------------------------

            1           2           3           4           5           6           7           8           9          10
 ........................................................................................................................
   1    9.998       8.949       7.890       6.818       5.729       4.621       3.494       2.347       1.182      2.5949E-03
   2    9.998       8.951       7.894       6.823       5.736       4.629       3.501       2.352       1.185      2.6003E-03
   3    9.998       8.954       7.900       6.833       5.751       4.647       3.516       2.362       1.189      2.6110E-03
   4    9.998       8.958       7.909       6.849       5.775       4.679       3.540       2.377       1.196      2.6260E-03
   5    9.998       8.961       7.918       6.867       5.811       4.738       3.576       2.394       1.204      2.6420E-03
   6    9.998       8.963       7.923       6.880       5.847       4.845       3.613       2.407       1.208      2.6515E-03
   7    9.998       8.963       7.920       6.870       5.814       4.741       3.579       2.397       1.205      2.6447E-03
   8    9.998       8.960       7.913       6.855       5.782       4.686       3.547       2.381       1.199      2.6316E-03
   9    9.998       8.957       7.907       6.843       5.762       4.658       3.526       2.369       1.194      2.6201E-03
  10    9.998       8.956       7.903       6.836       5.752       4.646       3.516       2.363       1.191      2.6138E-03
1
              HEAD IN LAYER   5 AT END OF TIME STEP  92 IN STRESS PERIOD    3
  ---------------------------------------------------------------------------

            1           2           3           4           5           6           7           8           9          10
 ........................................................................................................................
   1    9.998       8.949       7.890       6.817       5.728       4.621       3.493       2.346       1.182      2.5937E-03
   2    9.998       8.951       7.893       6.822       5.735       4.629       3.500       2.351       1.184      2.5991E-03
   3    9.998       8.954       7.900       6.833       5.750       4.646       3.515       2.361       1.189      2.6098E-03
   4    9.998       8.957       7.908       6.849       5.775       4.678       3.539       2.376       1.196      2.6248E-03
   5    9.998       8.961       7.917       6.867       5.810       4.735       3.575       2.394       1.203      2.6408E-03
   6    9.998       8.963       7.922       6.879       5.845       4.827       3.610       2.406       1.207      2.6502E-03
   7    9.998       8.962       7.919       6.870       5.813       4.739       3.578       2.396       1.204      2.6435E-03
   8    9.998       8.960       7.912       6.854       5.782       4.685       3.546       2.381       1.198      2.6304E-03
   9    9.998       8.957       7.906       6.842       5.761       4.658       3.525       2.369       1.193      2.6189E-03
  10    9.998       8.955       7.903       6.836       5.752       4.646       3.516       2.363       1.190      2.6126E-03

 HEAD WILL BE SAVED ON UNIT   51 AT END OF TIME STEP   92, STRESS PERIOD    3

 DRAWDOWN WILL BE SAVED ON UNIT   52 AT END OF TIME STEP   92, STRESS PERIOD    3
1
  VOLUMETRIC BUDGET FOR ENTIRE MODEL AT END OF TIME STEP   92, STRESS PERIOD   3
  ------------------------------------------------------------------------------

     CUMULATIVE VOLUMES      L**3       RATES FOR THIS TIME STEP      L**3/T
     ------------------                 ------------------------

           IN:                                      IN:
           ---                                      ---
             STORAGE =         878.8839               STORAGE =           3.2851
       CONSTANT HEAD =           0.0000         CONSTANT HEAD =           0.0000
               WELLS =       15520.0000                 WELLS =          60.0000
     HEAD DEP BOUNDS =      221275.9219       HEAD DEP BOUNDS =        1137.7681

            TOTAL IN =      237674.8125              TOTAL IN =        1201.0532

          OUT:                                     OUT:
          ----                                     ----
             STORAGE =        7464.7700               STORAGE =       4.7016E-03
       CONSTANT HEAD =           0.0000         CONSTANT HEAD =           0.0000
               WELLS =           0.0000                 WELLS =           0.0000
     HEAD DEP BOUNDS =      230203.4219       HEAD DEP BOUNDS =        1200.9996

           TOTAL OUT =      237668.1875             TOTAL OUT =        1201.0044

            IN - OUT =           6.6250              IN - OUT =       4.8828E-02

 PERCENT DISCREPANCY =           0.00     PERCENT DISCREPANCY =           0.00






         TIME SUMMARY AT END OF TIME STEP   92 IN STRESS PERIOD    3
                    SECONDS     MINUTES      HOURS       DAYS        YEARS
                    -----------------------------------------------------------
   TIME STEP LENGTH  86400.      1440.0      24.000      1.0000     2.73785E-03
 STRESS PERIOD TIME 7.94880E+06 1.32480E+05  2208.0      92.000     0.25188    
         TOTAL TIME 1.66752E+07 2.77920E+05  4632.0      193.00     0.52841    
1
 
 SOLVING FOR HEAD 

 OUTPUT CONTROL FOR STRESS PERIOD    3   TIME STEP   93
    SAVE HEAD FOR ALL LAYERS
    SAVE DRAWDOWN FOR ALL LAYERS
    SAVE BUDGET
    PRINT HEAD FOR ALL LAYERS
    PRINT BUDGET
 UBDSV1 SAVING "         STORAGE" ON UNIT  53 AT TIME STEP 93, STRESS PERIOD   3
 UBDSV2 SAVING "   CONSTANT HEAD" ON UNIT  53 AT TIME STEP 93, STRESS PERIOD   3
 UBDSV1 SAVING "FLOW RIGHT FACE " ON UNIT  53 AT TIME STEP 93, STRESS PERIOD   3
 UBDSV1 SAVING "FLOW FRONT FACE " ON UNIT  53 AT TIME STEP 93, STRESS PERIOD   3
 UBDSV1 SAVING "FLOW LOWER FACE " ON UNIT  53 AT TIME STEP 93, STRESS PERIOD   3

 SAVING SATURATED THICKNESS AND FLOW TERMS ON UNIT   54 FOR MT3DMS
 BY THE LINK-MT3DMS PACKAGE V7 AT TIME STEP   93, STRESS PERIOD    3

1
              HEAD IN LAYER   1 AT END OF TIME STEP  93 IN STRESS PERIOD    3
  ---------------------------------------------------------------------------

            1           2           3           4           5           6           7           8           9          10
 ........................................................................................................................
   1    9.998       8.953       7.895       6.822       5.733       4.626       3.499       2.352       1.187      1.5485E-03
   2    9.998       8.955       7.898       6.828       5.741       4.634       3.506       2.357       1.190      1.5518E-03
   3    9.998       8.958       7.905       6.838       5.756       4.652       3.521       2.367       1.195      1.5585E-03
   4    9.998       8.962       7.913       6.854       5.780       4.684       3.546       2.382       1.201      1.5678E-03
   5    9.998       8.965       7.922       6.872       5.817       4.751       3.583       2.400       1.209      1.5780E-03
   6    9.998       8.967       7.927       6.885       5.859       4.931       3.626       2.414       1.213      1.5839E-03
   7    9.998       8.966       7.924       6.875       5.820       4.754       3.586       2.403       1.210      1.5796E-03
   8    9.998       8.964       7.917       6.860       5.787       4.692       3.552       2.387       1.204      1.5714E-03
   9    9.998       8.961       7.911       6.847       5.767       4.663       3.531       2.375       1.199      1.5643E-03
  10    9.998       8.960       7.908       6.841       5.757       4.651       3.522       2.369       1.196      1.5603E-03
1
              HEAD IN LAYER   2 AT END OF TIME STEP  93 IN STRESS PERIOD    3
  ---------------------------------------------------------------------------

            1           2           3           4           5           6           7           8           9          10
 ........................................................................................................................
   1    9.998       8.952       7.893       6.820       5.731       4.624       3.497       2.350       1.185      2.5452E-03
   2    9.998       8.953       7.896       6.826       5.739       4.632       3.504       2.355       1.188      2.5505E-03
   3    9.998       8.956       7.903       6.836       5.754       4.650       3.519       2.365       1.192      2.5610E-03
   4    9.998       8.960       7.911       6.852       5.778       4.682       3.543       2.380       1.199      2.5759E-03
   5    9.998       8.964       7.920       6.870       5.815       4.748       3.580       2.398       1.207      2.5918E-03
   6    9.998       8.966       7.925       6.883       5.857       4.952       3.623       2.411       1.211      2.6011E-03
   7    9.998       8.965       7.922       6.873       5.818       4.751       3.583       2.400       1.208      2.5944E-03
   8    9.998       8.962       7.915       6.857       5.785       4.689       3.550       2.385       1.202      2.5815E-03
   9    9.998       8.960       7.909       6.845       5.765       4.661       3.529       2.373       1.197      2.5701E-03
  10    9.998       8.958       7.906       6.839       5.755       4.649       3.519       2.367       1.194      2.5639E-03
1
              HEAD IN LAYER   3 AT END OF TIME STEP  93 IN STRESS PERIOD    3
  ---------------------------------------------------------------------------

            1           2           3           4           5           6           7           8           9          10
 ........................................................................................................................
   1    9.998       8.950       7.891       6.819       5.730       4.622       3.495       2.348       1.183      2.5952E-03
   2    9.998       8.952       7.895       6.824       5.737       4.630       3.502       2.353       1.186      2.6006E-03
   3    9.998       8.955       7.901       6.835       5.752       4.648       3.517       2.363       1.191      2.6113E-03
   4    9.998       8.959       7.910       6.850       5.777       4.680       3.541       2.378       1.197      2.6263E-03
   5    9.998       8.962       7.919       6.868       5.812       4.742       3.578       2.396       1.205      2.6424E-03
   6    9.998       8.964       7.924       6.881       5.852       4.884       3.617       2.409       1.209      2.6519E-03
   7    9.998       8.963       7.921       6.871       5.816       4.746       3.581       2.398       1.206      2.6451E-03
   8    9.998       8.961       7.914       6.856       5.783       4.687       3.548       2.383       1.200      2.6320E-03
   9    9.998       8.958       7.908       6.844       5.763       4.659       3.527       2.371       1.195      2.6205E-03
  10    9.998       8.957       7.904       6.838       5.753       4.648       3.518       2.365       1.192      2.6141E-03
1
              HEAD IN LAYER   4 AT END OF TIME STEP  93 IN STRESS PERIOD    3
  ---------------------------------------------------------------------------

            1           2           3           4           5           6           7           8           9          10
 ........................................................................................................................
   1    9.998       8.949       7.890       6.818       5.729       4.621       3.494       2.347       1.182      2.5949E-03
   2    9.998       8.951       7.894       6.823       5.736       4.629       3.501       2.352       1.185      2.6003E-03
   3    9.998       8.954       7.900       6.833       5.751       4.647       3.516       2.362       1.189      2.6109E-03
   4    9.998       8.958       7.909       6.849       5.775       4.679       3.540       2.377       1.196      2.6259E-03
   5    9.998       8.961       7.918       6.867       5.811       4.738       3.576       2.394       1.204      2.6420E-03
   6    9.998       8.963       7.923       6.880       5.847       4.845       3.613       2.407       1.208      2.6514E-03
   7    9.998       8.963       7.920       6.870       5.814       4.741       3.579       2.397       1.205      2.6447E-03
   8    9.998       8.960       7.913       6.855       5.782       4.686       3.546       2.381       1.199      2.6316E-03
   9    9.998       8.957       7.907       6.843       5.762       4.658       3.526       2.369       1.194      2.6201E-03
  10    9.998       8.956       7.903       6.836       5.752       4.646       3.516       2.363       1.191      2.6138E-03
1
              HEAD IN LAYER   5 AT END OF TIME STEP  93 IN STRESS PERIOD    3
  ---------------------------------------------------------------------------

            1           2           3           4           5           6           7           8           9          10
 ........................................................................................................................
   1    9.998       8.949       7.890       6.817       5.728       4.621       3.493       2.346       1.182      2.5937E-03
   2    9.998       8.951       7.893       6.822       5.735       4.629       3.500       2.351       1.184      2.5991E-03
   3    9.998       8.954       7.900       6.833       5.750       4.646       3.515       2.361       1.189      2.6097E-03
   4    9.998       8.957       7.908       6.848       5.775       4.678       3.539       2.376       1.196      2.6247E-03
   5    9.998       8.961       7.917       6.867       5.810       4.735       3.575       2.394       1.203      2.6407E-03
   6    9.998       8.963       7.922       6.879       5.845       4.827       3.610       2.406       1.207      2.6501E-03
   7    9.998       8.962       7.919       6.869       5.813       4.739       3.578       2.396       1.204      2.6434E-03
   8    9.998       8.960       7.912       6.854       5.782       4.685       3.546       2.381       1.198      2.6303E-03
   9    9.998       8.957       7.906       6.842       5.761       4.658       3.525       2.369       1.193      2.6189E-03
  10    9.998       8.955       7.903       6.836       5.752       4.646       3.516       2.363       1.190      2.6126E-03

 HEAD WILL BE SAVED ON UNIT   51 AT END OF TIME STEP   93, STRESS PERIOD    3

 DRAWDOWN WILL BE SAVED ON UNIT   52 AT END OF TIME STEP   93, STRESS PERIOD    3
1
  VOLUMETRIC BUDGET FOR ENTIRE MODEL AT END OF TIME STEP   93, STRESS PERIOD   3
  ------------------------------------------------------------------------------

     CUMULATIVE VOLUMES      L**3       RATES FOR THIS TIME STEP      L**3/T
     ------------------                 ------------------------

           IN:                                      IN:
           ---                                      ---
             STORAGE =         882.1232               STORAGE =           3.2393
       CONSTANT HEAD =           0.0000         CONSTANT HEAD =           0.0000
               WELLS =       15580.0000                 WELLS =          60.0000
     HEAD DEP BOUNDS =      222413.7031       HEAD DEP BOUNDS =        1137.7823

            TOTAL IN =      238875.8281              TOTAL IN =        1201.0216

          OUT:                                     OUT:
          ----                                     ----
             STORAGE =        7464.7725               STORAGE =       2.4729E-03
       CONSTANT HEAD =           0.0000         CONSTANT HEAD =           0.0000
               WELLS =           0.0000                 WELLS =           0.0000
     HEAD DEP BOUNDS =      231404.4062       HEAD DEP BOUNDS =        1200.9773

           TOTAL OUT =      238869.1719             TOTAL OUT =        1200.9797

            IN - OUT =           6.6562              IN - OUT =       4.1870E-02

 PERCENT DISCREPANCY =           0.00     PERCENT DISCREPANCY =           0.00






         TIME SUMMARY AT END OF TIME STEP   93 IN STRESS PERIOD    3
                    SECONDS     MINUTES      HOURS       DAYS        YEARS
                    -----------------------------------------------------------
   TIME STEP LENGTH  86400.      1440.0      24.000      1.0000     2.73785E-03
 STRESS PERIOD TIME 8.03520E+06 1.33920E+05  2232.0      93.000     0.25462    
         TOTAL TIME 1.67616E+07 2.79360E+05  4656.0      194.00     0.53114    
1
 
 SOLVING FOR HEAD 

 OUTPUT CONTROL FOR STRESS PERIOD    3   TIME STEP   94
    SAVE HEAD FOR ALL LAYERS
    SAVE DRAWDOWN FOR ALL LAYERS
    SAVE BUDGET
    PRINT HEAD FOR ALL LAYERS
    PRINT BUDGET
 UBDSV1 SAVING "         STORAGE" ON UNIT  53 AT TIME STEP 94, STRESS PERIOD   3
 UBDSV2 SAVING "   CONSTANT HEAD" ON UNIT  53 AT TIME STEP 94, STRESS PERIOD   3
 UBDSV1 SAVING "FLOW RIGHT FACE " ON UNIT  53 AT TIME STEP 94, STRESS PERIOD   3
 UBDSV1 SAVING "FLOW FRONT FACE " ON UNIT  53 AT TIME STEP 94, STRESS PERIOD   3
 UBDSV1 SAVING "FLOW LOWER FACE " ON UNIT  53 AT TIME STEP 94, STRESS PERIOD   3

 SAVING SATURATED THICKNESS AND FLOW TERMS ON UNIT   54 FOR MT3DMS
 BY THE LINK-MT3DMS PACKAGE V7 AT TIME STEP   94, STRESS PERIOD    3

1
              HEAD IN LAYER   1 AT END OF TIME STEP  94 IN STRESS PERIOD    3
  ---------------------------------------------------------------------------

            1           2           3           4           5           6           7           8           9          10
 ........................................................................................................................
   1    9.998       8.953       7.895       6.822       5.733       4.626       3.499       2.352       1.187      1.5485E-03
   2    9.998       8.955       7.898       6.828       5.741       4.634       3.506       2.357       1.190      1.5518E-03
   3    9.998       8.958       7.905       6.838       5.756       4.652       3.521       2.367       1.194      1.5585E-03
   4    9.998       8.962       7.913       6.854       5.780       4.684       3.546       2.382       1.201      1.5678E-03
   5    9.998       8.965       7.922       6.872       5.817       4.751       3.583       2.400       1.209      1.5779E-03
   6    9.998       8.967       7.927       6.885       5.859       4.931       3.626       2.414       1.213      1.5839E-03
   7    9.998       8.966       7.924       6.875       5.820       4.754       3.586       2.403       1.210      1.5796E-03
   8    9.998       8.964       7.917       6.859       5.787       4.692       3.552       2.387       1.204      1.5714E-03
   9    9.998       8.961       7.911       6.847       5.767       4.663       3.531       2.375       1.199      1.5642E-03
  10    9.998       8.960       7.908       6.841       5.757       4.651       3.522       2.369       1.196      1.5603E-03
1
              HEAD IN LAYER   2 AT END OF TIME STEP  94 IN STRESS PERIOD    3
  ---------------------------------------------------------------------------

            1           2           3           4           5           6           7           8           9          10
 ........................................................................................................................
   1    9.998       8.952       7.893       6.820       5.731       4.624       3.497       2.350       1.185      2.5452E-03
   2    9.998       8.953       7.896       6.826       5.739       4.632       3.504       2.355       1.188      2.5505E-03
   3    9.998       8.956       7.903       6.836       5.754       4.650       3.519       2.365       1.192      2.5610E-03
   4    9.998       8.960       7.911       6.852       5.778       4.682       3.543       2.380       1.199      2.5758E-03
   5    9.998       8.964       7.920       6.870       5.815       4.748       3.580       2.398       1.207      2.5917E-03
   6    9.998       8.966       7.925       6.883       5.856       4.952       3.623       2.411       1.211      2.6011E-03
   7    9.998       8.965       7.922       6.873       5.818       4.751       3.583       2.400       1.208      2.5943E-03
   8    9.998       8.962       7.915       6.857       5.785       4.689       3.550       2.385       1.202      2.5814E-03
   9    9.998       8.960       7.909       6.845       5.765       4.661       3.529       2.373       1.197      2.5701E-03
  10    9.998       8.958       7.906       6.839       5.755       4.649       3.519       2.367       1.194      2.5638E-03
1
              HEAD IN LAYER   3 AT END OF TIME STEP  94 IN STRESS PERIOD    3
  ---------------------------------------------------------------------------

            1           2           3           4           5           6           7           8           9          10
 ........................................................................................................................
   1    9.998       8.950       7.891       6.819       5.730       4.622       3.495       2.348       1.183      2.5952E-03
   2    9.998       8.952       7.895       6.824       5.737       4.630       3.502       2.353       1.186      2.6006E-03
   3    9.998       8.955       7.901       6.835       5.752       4.648       3.517       2.363       1.191      2.6112E-03
   4    9.998       8.959       7.910       6.850       5.777       4.680       3.541       2.378       1.197      2.6263E-03
   5    9.998       8.962       7.919       6.868       5.812       4.742       3.578       2.396       1.205      2.6424E-03
   6    9.998       8.964       7.924       6.881       5.852       4.884       3.617       2.409       1.209      2.6518E-03
   7    9.998       8.963       7.921       6.871       5.816       4.746       3.581       2.398       1.206      2.6450E-03
   8    9.998       8.961       7.914       6.856       5.783       4.687       3.548       2.383       1.200      2.6319E-03
   9    9.998       8.958       7.908       6.844       5.763       4.659       3.527       2.371       1.195      2.6204E-03
  10    9.998       8.957       7.904       6.837       5.753       4.648       3.517       2.365       1.192      2.6141E-03
1
              HEAD IN LAYER   4 AT END OF TIME STEP  94 IN STRESS PERIOD    3
  ---------------------------------------------------------------------------

            1           2           3           4           5           6           7           8           9          10
 ........................................................................................................................
   1    9.998       8.949       7.890       6.818       5.729       4.621       3.494       2.347       1.182      2.5949E-03
   2    9.998       8.951       7.894       6.823       5.736       4.629       3.501       2.352       1.185      2.6003E-03
   3    9.998       8.954       7.900       6.833       5.751       4.647       3.516       2.362       1.189      2.6109E-03
   4    9.998       8.958       7.909       6.849       5.775       4.679       3.540       2.377       1.196      2.6259E-03
   5    9.998       8.961       7.918       6.867       5.811       4.738       3.576       2.394       1.204      2.6419E-03
   6    9.998       8.963       7.923       6.880       5.847       4.845       3.613       2.407       1.208      2.6513E-03
   7    9.998       8.962       7.920       6.870       5.814       4.741       3.579       2.397       1.205      2.6446E-03
   8    9.998       8.960       7.913       6.855       5.782       4.686       3.546       2.381       1.199      2.6315E-03
   9    9.998       8.957       7.907       6.843       5.762       4.658       3.526       2.369       1.194      2.6200E-03
  10    9.998       8.956       7.903       6.836       5.752       4.646       3.516       2.363       1.191      2.6137E-03
1
              HEAD IN LAYER   5 AT END OF TIME STEP  94 IN STRESS PERIOD    3
  ---------------------------------------------------------------------------

            1           2           3           4           5           6           7           8           9          10
 ........................................................................................................................
   1    9.998       8.949       7.890       6.817       5.728       4.621       3.493       2.346       1.182      2.5937E-03
   2    9.998       8.951       7.893       6.822       5.735       4.629       3.500       2.351       1.184      2.5991E-03
   3    9.998       8.954       7.900       6.833       5.750       4.646       3.515       2.361       1.189      2.6097E-03
   4    9.998       8.957       7.908       6.848       5.775       4.678       3.539       2.376       1.196      2.6247E-03
   5    9.998       8.961       7.917       6.867       5.810       4.735       3.575       2.394       1.203      2.6407E-03
   6    9.998       8.963       7.922       6.879       5.845       4.827       3.610       2.406       1.207      2.6501E-03
   7    9.998       8.962       7.919       6.869       5.813       4.739       3.578       2.396       1.204      2.6434E-03
   8    9.998       8.959       7.912       6.854       5.782       4.685       3.546       2.381       1.198      2.6303E-03
   9    9.998       8.957       7.906       6.842       5.761       4.657       3.525       2.369       1.193      2.6188E-03
  10    9.998       8.955       7.903       6.836       5.752       4.646       3.516       2.363       1.190      2.6125E-03

 HEAD WILL BE SAVED ON UNIT   51 AT END OF TIME STEP   94, STRESS PERIOD    3

 DRAWDOWN WILL BE SAVED ON UNIT   52 AT END OF TIME STEP   94, STRESS PERIOD    3
1
  VOLUMETRIC BUDGET FOR ENTIRE MODEL AT END OF TIME STEP   94, STRESS PERIOD   3
  ------------------------------------------------------------------------------

     CUMULATIVE VOLUMES      L**3       RATES FOR THIS TIME STEP      L**3/T
     ------------------                 ------------------------

           IN:                                      IN:
           ---                                      ---
             STORAGE =         885.3312               STORAGE =           3.2080
       CONSTANT HEAD =           0.0000         CONSTANT HEAD =           0.0000
               WELLS =       15640.0000                 WELLS =          60.0000
     HEAD DEP BOUNDS =      223551.5000       HEAD DEP BOUNDS =        1137.7966

            TOTAL IN =      240076.8281              TOTAL IN =        1201.0046

          OUT:                                     OUT:
          ----                                     ----
             STORAGE =        7464.7744               STORAGE =       1.8311E-03
       CONSTANT HEAD =           0.0000         CONSTANT HEAD =           0.0000
               WELLS =           0.0000                 WELLS =           0.0000
     HEAD DEP BOUNDS =      232605.3594       HEAD DEP BOUNDS =        1200.9564

           TOTAL OUT =      240070.1406             TOTAL OUT =        1200.9583

            IN - OUT =           6.6875              IN - OUT =       4.6387E-02

 PERCENT DISCREPANCY =           0.00     PERCENT DISCREPANCY =           0.00






         TIME SUMMARY AT END OF TIME STEP   94 IN STRESS PERIOD    3
                    SECONDS     MINUTES      HOURS       DAYS        YEARS
                    -----------------------------------------------------------
   TIME STEP LENGTH  86400.      1440.0      24.000      1.0000     2.73785E-03
 STRESS PERIOD TIME 8.12160E+06 1.35360E+05  2256.0      94.000     0.25736    
         TOTAL TIME 1.68480E+07 2.80800E+05  4680.0      195.00     0.53388    
1
 
 SOLVING FOR HEAD 

 OUTPUT CONTROL FOR STRESS PERIOD    3   TIME STEP   95
    SAVE HEAD FOR ALL LAYERS
    SAVE DRAWDOWN FOR ALL LAYERS
    SAVE BUDGET
    PRINT HEAD FOR ALL LAYERS
    PRINT BUDGET
 UBDSV1 SAVING "         STORAGE" ON UNIT  53 AT TIME STEP 95, STRESS PERIOD   3
 UBDSV2 SAVING "   CONSTANT HEAD" ON UNIT  53 AT TIME STEP 95, STRESS PERIOD   3
 UBDSV1 SAVING "FLOW RIGHT FACE " ON UNIT  53 AT TIME STEP 95, STRESS PERIOD   3
 UBDSV1 SAVING "FLOW FRONT FACE " ON UNIT  53 AT TIME STEP 95, STRESS PERIOD   3
 UBDSV1 SAVING "FLOW LOWER FACE " ON UNIT  53 AT TIME STEP 95, STRESS PERIOD   3

 SAVING SATURATED THICKNESS AND FLOW TERMS ON UNIT   54 FOR MT3DMS
 BY THE LINK-MT3DMS PACKAGE V7 AT TIME STEP   95, STRESS PERIOD    3

1
              HEAD IN LAYER   1 AT END OF TIME STEP  95 IN STRESS PERIOD    3
  ---------------------------------------------------------------------------

            1           2           3           4           5           6           7           8           9          10
 ........................................................................................................................
   1    9.998       8.953       7.895       6.822       5.733       4.626       3.499       2.352       1.187      1.5485E-03
   2    9.998       8.955       7.898       6.828       5.741       4.634       3.506       2.357       1.190      1.5518E-03
   3    9.998       8.958       7.905       6.838       5.756       4.652       3.521       2.367       1.194      1.5585E-03
   4    9.998       8.962       7.913       6.854       5.780       4.684       3.546       2.382       1.201      1.5678E-03
   5    9.998       8.965       7.922       6.872       5.817       4.751       3.583       2.400       1.209      1.5779E-03
   6    9.998       8.967       7.927       6.885       5.859       4.931       3.626       2.413       1.213      1.5839E-03
   7    9.998       8.966       7.924       6.875       5.820       4.754       3.586       2.402       1.210      1.5795E-03
   8    9.998       8.964       7.917       6.859       5.787       4.691       3.552       2.387       1.204      1.5713E-03
   9    9.998       8.961       7.911       6.847       5.767       4.663       3.531       2.375       1.199      1.5642E-03
  10    9.998       8.960       7.908       6.841       5.757       4.651       3.521       2.369       1.196      1.5603E-03
1
              HEAD IN LAYER   2 AT END OF TIME STEP  95 IN STRESS PERIOD    3
  ---------------------------------------------------------------------------

            1           2           3           4           5           6           7           8           9          10
 ........................................................................................................................
   1    9.998       8.952       7.893       6.820       5.731       4.624       3.497       2.350       1.185      2.5452E-03
   2    9.998       8.953       7.896       6.826       5.739       4.632       3.504       2.355       1.188      2.5505E-03
   3    9.998       8.956       7.903       6.836       5.754       4.650       3.519       2.365       1.192      2.5610E-03
   4    9.998       8.960       7.911       6.852       5.778       4.682       3.543       2.380       1.199      2.5758E-03
   5    9.998       8.964       7.920       6.870       5.815       4.748       3.580       2.398       1.207      2.5916E-03
   6    9.998       8.966       7.925       6.883       5.856       4.952       3.623       2.411       1.211      2.6010E-03
   7    9.998       8.965       7.922       6.873       5.818       4.751       3.583       2.400       1.208      2.5943E-03
   8    9.998       8.962       7.915       6.857       5.785       4.689       3.550       2.385       1.202      2.5813E-03
   9    9.998       8.960       7.909       6.845       5.765       4.661       3.529       2.373       1.197      2.5700E-03
  10    9.998       8.958       7.906       6.839       5.755       4.649       3.519       2.367       1.194      2.5638E-03
1
              HEAD IN LAYER   3 AT END OF TIME STEP  95 IN STRESS PERIOD    3
  ---------------------------------------------------------------------------

            1           2           3           4           5           6           7           8           9          10
 ........................................................................................................................
   1    9.998       8.950       7.891       6.819       5.730       4.622       3.495       2.348       1.183      2.5952E-03
   2    9.998       8.952       7.895       6.824       5.737       4.630       3.502       2.353       1.186      2.6006E-03
   3    9.998       8.955       7.901       6.834       5.752       4.648       3.517       2.363       1.191      2.6112E-03
   4    9.998       8.959       7.910       6.850       5.776       4.680       3.541       2.378       1.197      2.6262E-03
   5    9.998       8.962       7.919       6.868       5.812       4.742       3.578       2.396       1.205      2.6423E-03
   6    9.998       8.964       7.924       6.881       5.851       4.884       3.617       2.409       1.209      2.6518E-03
   7    9.998       8.963       7.921       6.871       5.816       4.746       3.581       2.398       1.206      2.6450E-03
   8    9.998       8.961       7.914       6.856       5.783       4.687       3.548       2.383       1.200      2.6318E-03
   9    9.998       8.958       7.908       6.844       5.763       4.659       3.527       2.371       1.195      2.6204E-03
  10    9.998       8.957       7.904       6.837       5.753       4.647       3.517       2.365       1.192      2.6141E-03
1
              HEAD IN LAYER   4 AT END OF TIME STEP  95 IN STRESS PERIOD    3
  ---------------------------------------------------------------------------

            1           2           3           4           5           6           7           8           9          10
 ........................................................................................................................
   1    9.998       8.949       7.890       6.818       5.729       4.621       3.494       2.347       1.182      2.5949E-03
   2    9.998       8.951       7.894       6.823       5.736       4.629       3.501       2.352       1.185      2.6002E-03
   3    9.998       8.954       7.900       6.833       5.751       4.647       3.516       2.362       1.189      2.6109E-03
   4    9.998       8.958       7.909       6.849       5.775       4.679       3.540       2.377       1.196      2.6258E-03
   5    9.998       8.961       7.918       6.867       5.811       4.738       3.576       2.394       1.204      2.6419E-03
   6    9.998       8.963       7.923       6.880       5.847       4.845       3.612       2.407       1.208      2.6513E-03
   7    9.998       8.962       7.920       6.870       5.814       4.741       3.579       2.397       1.205      2.6445E-03
   8    9.998       8.960       7.913       6.855       5.782       4.686       3.546       2.381       1.199      2.6314E-03
   9    9.998       8.957       7.907       6.843       5.762       4.658       3.526       2.369       1.194      2.6200E-03
  10    9.998       8.956       7.903       6.836       5.752       4.646       3.516       2.363       1.191      2.6137E-03
1
              HEAD IN LAYER   5 AT END OF TIME STEP  95 IN STRESS PERIOD    3
  ---------------------------------------------------------------------------

            1           2           3           4           5           6           7           8           9          10
 ........................................................................................................................
   1    9.998       8.949       7.890       6.817       5.728       4.621       3.493       2.346       1.182      2.5937E-03
   2    9.998       8.951       7.893       6.822       5.735       4.629       3.500       2.351       1.184      2.5991E-03
   3    9.998       8.954       7.900       6.833       5.750       4.646       3.515       2.361       1.189      2.6097E-03
   4    9.998       8.957       7.908       6.848       5.775       4.678       3.539       2.376       1.196      2.6246E-03
   5    9.998       8.961       7.917       6.867       5.810       4.735       3.575       2.394       1.203      2.6406E-03
   6    9.998       8.963       7.922       6.879       5.845       4.826       3.610       2.406       1.207      2.6500E-03
   7    9.998       8.962       7.919       6.869       5.813       4.739       3.578       2.396       1.204      2.6433E-03
   8    9.998       8.959       7.912       6.854       5.781       4.685       3.546       2.381       1.198      2.6302E-03
   9    9.998       8.957       7.906       6.842       5.761       4.657       3.525       2.369       1.193      2.6188E-03
  10    9.998       8.955       7.903       6.836       5.751       4.646       3.516       2.363       1.190      2.6125E-03

 HEAD WILL BE SAVED ON UNIT   51 AT END OF TIME STEP   95, STRESS PERIOD    3

 DRAWDOWN WILL BE SAVED ON UNIT   52 AT END OF TIME STEP   95, STRESS PERIOD    3
1
  VOLUMETRIC BUDGET FOR ENTIRE MODEL AT END OF TIME STEP   95, STRESS PERIOD   3
  ------------------------------------------------------------------------------

     CUMULATIVE VOLUMES      L**3       RATES FOR THIS TIME STEP      L**3/T
     ------------------                 ------------------------

           IN:                                      IN:
           ---                                      ---
             STORAGE =         888.4954               STORAGE =           3.1642
       CONSTANT HEAD =           0.0000         CONSTANT HEAD =           0.0000
               WELLS =       15700.0000                 WELLS =          60.0000
     HEAD DEP BOUNDS =      224689.3125       HEAD DEP BOUNDS =        1137.8108

            TOTAL IN =      241277.8125              TOTAL IN =        1200.9750

          OUT:                                     OUT:
          ----                                     ----
             STORAGE =        7464.7754               STORAGE =       9.7656E-04
       CONSTANT HEAD =           0.0000         CONSTANT HEAD =           0.0000
               WELLS =           0.0000                 WELLS =           0.0000
     HEAD DEP BOUNDS =      233806.2969       HEAD DEP BOUNDS =        1200.9358

           TOTAL OUT =      241271.0781             TOTAL OUT =        1200.9368

            IN - OUT =           6.7344              IN - OUT =       3.8208E-02

 PERCENT DISCREPANCY =           0.00     PERCENT DISCREPANCY =           0.00






         TIME SUMMARY AT END OF TIME STEP   95 IN STRESS PERIOD    3
                    SECONDS     MINUTES      HOURS       DAYS        YEARS
                    -----------------------------------------------------------
   TIME STEP LENGTH  86400.      1440.0      24.000      1.0000     2.73785E-03
 STRESS PERIOD TIME 8.20800E+06 1.36800E+05  2280.0      95.000     0.26010    
         TOTAL TIME 1.69344E+07 2.82240E+05  4704.0      196.00     0.53662    
1
 
 SOLVING FOR HEAD 

 OUTPUT CONTROL FOR STRESS PERIOD    3   TIME STEP   96
    SAVE HEAD FOR ALL LAYERS
    SAVE DRAWDOWN FOR ALL LAYERS
    SAVE BUDGET
    PRINT HEAD FOR ALL LAYERS
    PRINT BUDGET
 UBDSV1 SAVING "         STORAGE" ON UNIT  53 AT TIME STEP 96, STRESS PERIOD   3
 UBDSV2 SAVING "   CONSTANT HEAD" ON UNIT  53 AT TIME STEP 96, STRESS PERIOD   3
 UBDSV1 SAVING "FLOW RIGHT FACE " ON UNIT  53 AT TIME STEP 96, STRESS PERIOD   3
 UBDSV1 SAVING "FLOW FRONT FACE " ON UNIT  53 AT TIME STEP 96, STRESS PERIOD   3
 UBDSV1 SAVING "FLOW LOWER FACE " ON UNIT  53 AT TIME STEP 96, STRESS PERIOD   3

 SAVING SATURATED THICKNESS AND FLOW TERMS ON UNIT   54 FOR MT3DMS
 BY THE LINK-MT3DMS PACKAGE V7 AT TIME STEP   96, STRESS PERIOD    3

1
              HEAD IN LAYER   1 AT END OF TIME STEP  96 IN STRESS PERIOD    3
  ---------------------------------------------------------------------------

            1           2           3           4           5           6           7           8           9          10
 ........................................................................................................................
   1    9.998       8.953       7.895       6.822       5.733       4.626       3.499       2.352       1.187      1.5485E-03
   2    9.998       8.955       7.898       6.828       5.741       4.634       3.506       2.357       1.190      1.5518E-03
   3    9.998       8.958       7.905       6.838       5.756       4.652       3.521       2.367       1.194      1.5584E-03
   4    9.998       8.962       7.913       6.854       5.780       4.684       3.546       2.382       1.201      1.5678E-03
   5    9.998       8.965       7.922       6.872       5.817       4.751       3.583       2.400       1.209      1.5779E-03
   6    9.998       8.967       7.927       6.885       5.859       4.930       3.626       2.413       1.213      1.5838E-03
   7    9.998       8.966       7.924       6.875       5.820       4.754       3.586       2.402       1.210      1.5795E-03
   8    9.998       8.964       7.917       6.859       5.787       4.691       3.552       2.387       1.204      1.5713E-03
   9    9.998       8.961       7.911       6.847       5.767       4.663       3.531       2.375       1.199      1.5642E-03
  10    9.998       8.960       7.908       6.841       5.757       4.651       3.521       2.369       1.196      1.5602E-03
1
              HEAD IN LAYER   2 AT END OF TIME STEP  96 IN STRESS PERIOD    3
  ---------------------------------------------------------------------------

            1           2           3           4           5           6           7           8           9          10
 ........................................................................................................................
   1    9.998       8.952       7.893       6.820       5.731       4.624       3.497       2.350       1.185      2.5452E-03
   2    9.998       8.953       7.896       6.826       5.739       4.632       3.504       2.355       1.188      2.5505E-03
   3    9.998       8.956       7.903       6.836       5.753       4.650       3.519       2.365       1.192      2.5610E-03
   4    9.998       8.960       7.911       6.852       5.778       4.682       3.543       2.380       1.199      2.5757E-03
   5    9.998       8.964       7.920       6.870       5.814       4.748       3.580       2.398       1.207      2.5916E-03
   6    9.998       8.966       7.925       6.883       5.856       4.952       3.623       2.411       1.211      2.6009E-03
   7    9.998       8.965       7.922       6.873       5.818       4.751       3.583       2.400       1.208      2.5942E-03
   8    9.998       8.962       7.915       6.857       5.785       4.689       3.550       2.385       1.202      2.5813E-03
   9    9.998       8.960       7.909       6.845       5.764       4.661       3.529       2.373       1.197      2.5700E-03
  10    9.998       8.958       7.906       6.839       5.755       4.649       3.519       2.366       1.194      2.5638E-03
1
              HEAD IN LAYER   3 AT END OF TIME STEP  96 IN STRESS PERIOD    3
  ---------------------------------------------------------------------------

            1           2           3           4           5           6           7           8           9          10
 ........................................................................................................................
   1    9.998       8.950       7.891       6.819       5.730       4.622       3.495       2.348       1.183      2.5952E-03
   2    9.998       8.952       7.895       6.824       5.737       4.630       3.502       2.353       1.186      2.6005E-03
   3    9.998       8.955       7.901       6.834       5.752       4.648       3.517       2.363       1.191      2.6112E-03
   4    9.998       8.959       7.910       6.850       5.776       4.680       3.541       2.378       1.197      2.6262E-03
   5    9.998       8.962       7.919       6.868       5.812       4.742       3.577       2.396       1.205      2.6422E-03
   6    9.998       8.964       7.924       6.881       5.851       4.884       3.617       2.409       1.209      2.6517E-03
   7    9.998       8.963       7.921       6.871       5.816       4.746       3.580       2.398       1.206      2.6449E-03
   8    9.998       8.961       7.914       6.856       5.783       4.687       3.548       2.383       1.200      2.6318E-03
   9    9.998       8.958       7.908       6.844       5.763       4.659       3.527       2.371       1.195      2.6203E-03
  10    9.998       8.957       7.904       6.837       5.753       4.647       3.517       2.365       1.192      2.6140E-03
1
              HEAD IN LAYER   4 AT END OF TIME STEP  96 IN STRESS PERIOD    3
  ---------------------------------------------------------------------------

            1           2           3           4           5           6           7           8           9          10
 ........................................................................................................................
   1    9.998       8.949       7.890       6.818       5.729       4.621       3.494       2.347       1.182      2.5949E-03
   2    9.998       8.951       7.894       6.823       5.736       4.629       3.501       2.352       1.185      2.6002E-03
   3    9.998       8.954       7.900       6.833       5.751       4.647       3.515       2.362       1.189      2.6108E-03
   4    9.998       8.958       7.909       6.849       5.775       4.679       3.540       2.376       1.196      2.6258E-03
   5    9.998       8.961       7.918       6.867       5.811       4.738       3.576       2.394       1.203      2.6418E-03
   6    9.998       8.963       7.923       6.880       5.847       4.845       3.612       2.407       1.208      2.6512E-03
   7    9.998       8.962       7.920       6.870       5.814       4.741       3.579       2.397       1.205      2.6445E-03
   8    9.998       8.960       7.913       6.855       5.782       4.686       3.546       2.381       1.199      2.6314E-03
   9    9.998       8.957       7.907       6.843       5.762       4.658       3.526       2.369       1.194      2.6199E-03
  10    9.998       8.956       7.903       6.836       5.752       4.646       3.516       2.363       1.191      2.6136E-03
1
              HEAD IN LAYER   5 AT END OF TIME STEP  96 IN STRESS PERIOD    3
  ---------------------------------------------------------------------------

            1           2           3           4           5           6           7           8           9          10
 ........................................................................................................................
   1    9.998       8.949       7.890       6.817       5.728       4.621       3.493       2.346       1.182      2.5937E-03
   2    9.998       8.951       7.893       6.822       5.735       4.628       3.500       2.351       1.184      2.5991E-03
   3    9.998       8.954       7.900       6.833       5.750       4.646       3.515       2.361       1.189      2.6096E-03
   4    9.998       8.957       7.908       6.848       5.775       4.678       3.539       2.376       1.196      2.6246E-03
   5    9.998       8.961       7.917       6.867       5.810       4.735       3.575       2.394       1.203      2.6406E-03
   6    9.998       8.963       7.922       6.879       5.845       4.826       3.610       2.406       1.207      2.6499E-03
   7    9.998       8.962       7.919       6.869       5.813       4.739       3.578       2.396       1.204      2.6432E-03
   8    9.998       8.959       7.912       6.854       5.781       4.685       3.546       2.381       1.198      2.6302E-03
   9    9.998       8.957       7.906       6.842       5.761       4.657       3.525       2.369       1.193      2.6187E-03
  10    9.998       8.955       7.903       6.836       5.751       4.646       3.515       2.363       1.190      2.6125E-03

 HEAD WILL BE SAVED ON UNIT   51 AT END OF TIME STEP   96, STRESS PERIOD    3

 DRAWDOWN WILL BE SAVED ON UNIT   52 AT END OF TIME STEP   96, STRESS PERIOD    3
1
  VOLUMETRIC BUDGET FOR ENTIRE MODEL AT END OF TIME STEP   96, STRESS PERIOD   3
  ------------------------------------------------------------------------------

     CUMULATIVE VOLUMES      L**3       RATES FOR THIS TIME STEP      L**3/T
     ------------------                 ------------------------

           IN:                                      IN:
           ---                                      ---
             STORAGE =         891.6309               STORAGE =           3.1355
       CONSTANT HEAD =           0.0000         CONSTANT HEAD =           0.0000
               WELLS =       15760.0000                 WELLS =          60.0000
     HEAD DEP BOUNDS =      225827.1406       HEAD DEP BOUNDS =        1137.8248

            TOTAL IN =      242478.7656              TOTAL IN =        1200.9603

          OUT:                                     OUT:
          ----                                     ----
             STORAGE =        7464.7754               STORAGE =           0.0000
       CONSTANT HEAD =           0.0000         CONSTANT HEAD =           0.0000
               WELLS =           0.0000                 WELLS =           0.0000
     HEAD DEP BOUNDS =      235007.2188       HEAD DEP BOUNDS =        1200.9155

           TOTAL OUT =      242472.0000             TOTAL OUT =        1200.9155

            IN - OUT =           6.7656              IN - OUT =       4.4800E-02

 PERCENT DISCREPANCY =           0.00     PERCENT DISCREPANCY =           0.00






         TIME SUMMARY AT END OF TIME STEP   96 IN STRESS PERIOD    3
                    SECONDS     MINUTES      HOURS       DAYS        YEARS
                    -----------------------------------------------------------
   TIME STEP LENGTH  86400.      1440.0      24.000      1.0000     2.73785E-03
 STRESS PERIOD TIME 8.29440E+06 1.38240E+05  2304.0      96.000     0.26283    
         TOTAL TIME 1.70208E+07 2.83680E+05  4728.0      197.00     0.53936    
1
 
 SOLVING FOR HEAD 

 OUTPUT CONTROL FOR STRESS PERIOD    3   TIME STEP   97
    SAVE HEAD FOR ALL LAYERS
    SAVE DRAWDOWN FOR ALL LAYERS
    SAVE BUDGET
    PRINT HEAD FOR ALL LAYERS
    PRINT BUDGET
 UBDSV1 SAVING "         STORAGE" ON UNIT  53 AT TIME STEP 97, STRESS PERIOD   3
 UBDSV2 SAVING "   CONSTANT HEAD" ON UNIT  53 AT TIME STEP 97, STRESS PERIOD   3
 UBDSV1 SAVING "FLOW RIGHT FACE " ON UNIT  53 AT TIME STEP 97, STRESS PERIOD   3
 UBDSV1 SAVING "FLOW FRONT FACE " ON UNIT  53 AT TIME STEP 97, STRESS PERIOD   3
 UBDSV1 SAVING "FLOW LOWER FACE " ON UNIT  53 AT TIME STEP 97, STRESS PERIOD   3

 SAVING SATURATED THICKNESS AND FLOW TERMS ON UNIT   54 FOR MT3DMS
 BY THE LINK-MT3DMS PACKAGE V7 AT TIME STEP   97, STRESS PERIOD    3

1
              HEAD IN LAYER   1 AT END OF TIME STEP  97 IN STRESS PERIOD    3
  ---------------------------------------------------------------------------

            1           2           3           4           5           6           7           8           9          10
 ........................................................................................................................
   1    9.998       8.953       7.895       6.822       5.733       4.626       3.499       2.352       1.187      1.5485E-03
   2    9.998       8.955       7.898       6.827       5.741       4.634       3.506       2.357       1.190      1.5518E-03
   3    9.998       8.958       7.905       6.838       5.755       4.652       3.521       2.367       1.194      1.5584E-03
   4    9.998       8.962       7.913       6.854       5.780       4.684       3.545       2.382       1.201      1.5677E-03
   5    9.998       8.965       7.922       6.872       5.817       4.750       3.582       2.400       1.209      1.5778E-03
   6    9.998       8.967       7.927       6.885       5.859       4.930       3.626       2.413       1.213      1.5838E-03
   7    9.998       8.966       7.924       6.875       5.820       4.754       3.585       2.402       1.210      1.5795E-03
   8    9.998       8.964       7.917       6.859       5.787       4.691       3.552       2.387       1.204      1.5713E-03
   9    9.998       8.961       7.911       6.847       5.767       4.663       3.531       2.375       1.199      1.5641E-03
  10    9.998       8.960       7.908       6.841       5.757       4.651       3.521       2.369       1.196      1.5602E-03
1
              HEAD IN LAYER   2 AT END OF TIME STEP  97 IN STRESS PERIOD    3
  ---------------------------------------------------------------------------

            1           2           3           4           5           6           7           8           9          10
 ........................................................................................................................
   1    9.998       8.952       7.893       6.820       5.731       4.624       3.497       2.350       1.185      2.5452E-03
   2    9.998       8.953       7.896       6.826       5.738       4.632       3.504       2.355       1.188      2.5505E-03
   3    9.998       8.956       7.903       6.836       5.753       4.650       3.519       2.365       1.192      2.5609E-03
   4    9.998       8.960       7.911       6.852       5.778       4.682       3.543       2.380       1.199      2.5757E-03
   5    9.998       8.964       7.920       6.870       5.814       4.747       3.580       2.398       1.207      2.5915E-03
   6    9.998       8.966       7.925       6.883       5.856       4.952       3.623       2.411       1.211      2.6009E-03
   7    9.998       8.965       7.922       6.873       5.818       4.751       3.583       2.400       1.208      2.5941E-03
   8    9.998       8.962       7.915       6.857       5.785       4.689       3.550       2.385       1.202      2.5812E-03
   9    9.998       8.959       7.909       6.845       5.764       4.661       3.529       2.373       1.197      2.5699E-03
  10    9.998       8.958       7.906       6.839       5.755       4.649       3.519       2.366       1.194      2.5637E-03
1
              HEAD IN LAYER   3 AT END OF TIME STEP  97 IN STRESS PERIOD    3
  ---------------------------------------------------------------------------

            1           2           3           4           5           6           7           8           9          10
 ........................................................................................................................
   1    9.998       8.950       7.891       6.819       5.730       4.622       3.495       2.348       1.183      2.5952E-03
   2    9.998       8.952       7.895       6.824       5.737       4.630       3.502       2.353       1.186      2.6005E-03
   3    9.998       8.955       7.901       6.834       5.752       4.648       3.517       2.363       1.191      2.6111E-03
   4    9.998       8.959       7.910       6.850       5.776       4.680       3.541       2.378       1.197      2.6261E-03
   5    9.998       8.962       7.919       6.868       5.812       4.742       3.577       2.396       1.205      2.6422E-03
   6    9.998       8.964       7.924       6.881       5.851       4.884       3.617       2.409       1.209      2.6516E-03
   7    9.998       8.963       7.921       6.871       5.815       4.746       3.580       2.398       1.206      2.6449E-03
   8    9.998       8.961       7.914       6.856       5.783       4.687       3.548       2.383       1.200      2.6317E-03
   9    9.998       8.958       7.908       6.844       5.763       4.659       3.527       2.371       1.195      2.6203E-03
  10    9.998       8.957       7.904       6.837       5.753       4.647       3.517       2.364       1.192      2.6140E-03
1
              HEAD IN LAYER   4 AT END OF TIME STEP  97 IN STRESS PERIOD    3
  ---------------------------------------------------------------------------

            1           2           3           4           5           6           7           8           9          10
 ........................................................................................................................
   1    9.998       8.949       7.890       6.818       5.729       4.621       3.494       2.347       1.182      2.5948E-03
   2    9.998       8.951       7.894       6.823       5.736       4.629       3.501       2.352       1.185      2.6002E-03
   3    9.998       8.954       7.900       6.833       5.751       4.647       3.515       2.362       1.189      2.6108E-03
   4    9.998       8.958       7.909       6.849       5.775       4.678       3.540       2.376       1.196      2.6257E-03
   5    9.998       8.961       7.918       6.867       5.811       4.738       3.576       2.394       1.203      2.6418E-03
   6    9.998       8.963       7.923       6.880       5.847       4.845       3.612       2.407       1.208      2.6511E-03
   7    9.998       8.962       7.920       6.870       5.814       4.741       3.579       2.396       1.205      2.6444E-03
   8    9.998       8.960       7.913       6.855       5.782       4.685       3.546       2.381       1.199      2.6313E-03
   9    9.998       8.957       7.907       6.843       5.762       4.658       3.526       2.369       1.193      2.6199E-03
  10    9.998       8.956       7.903       6.836       5.752       4.646       3.516       2.363       1.191      2.6136E-03
1
              HEAD IN LAYER   5 AT END OF TIME STEP  97 IN STRESS PERIOD    3
  ---------------------------------------------------------------------------

            1           2           3           4           5           6           7           8           9          10
 ........................................................................................................................
   1    9.998       8.949       7.890       6.817       5.728       4.621       3.493       2.346       1.182      2.5937E-03
   2    9.998       8.951       7.893       6.822       5.735       4.628       3.500       2.351       1.184      2.5990E-03
   3    9.998       8.954       7.900       6.833       5.750       4.646       3.515       2.361       1.189      2.6096E-03
   4    9.998       8.957       7.908       6.848       5.775       4.678       3.539       2.376       1.196      2.6245E-03
   5    9.998       8.961       7.917       6.867       5.810       4.735       3.575       2.394       1.203      2.6405E-03
   6    9.998       8.963       7.922       6.879       5.845       4.826       3.610       2.406       1.207      2.6499E-03
   7    9.998       8.962       7.919       6.869       5.813       4.738       3.578       2.396       1.204      2.6432E-03
   8    9.998       8.959       7.912       6.854       5.781       4.685       3.546       2.380       1.198      2.6301E-03
   9    9.998       8.957       7.906       6.842       5.761       4.657       3.525       2.369       1.193      2.6187E-03
  10    9.998       8.955       7.903       6.836       5.751       4.646       3.515       2.363       1.190      2.6124E-03

 HEAD WILL BE SAVED ON UNIT   51 AT END OF TIME STEP   97, STRESS PERIOD    3

 DRAWDOWN WILL BE SAVED ON UNIT   52 AT END OF TIME STEP   97, STRESS PERIOD    3
1
  VOLUMETRIC BUDGET FOR ENTIRE MODEL AT END OF TIME STEP   97, STRESS PERIOD   3
  ------------------------------------------------------------------------------

     CUMULATIVE VOLUMES      L**3       RATES FOR THIS TIME STEP      L**3/T
     ------------------                 ------------------------

           IN:                                      IN:
           ---                                      ---
             STORAGE =         894.7253               STORAGE =           3.0945
       CONSTANT HEAD =           0.0000         CONSTANT HEAD =           0.0000
               WELLS =       15820.0000                 WELLS =          60.0000
     HEAD DEP BOUNDS =      226964.9844       HEAD DEP BOUNDS =        1137.8390

            TOTAL IN =      243679.7031              TOTAL IN =        1200.9335

          OUT:                                     OUT:
          ----                                     ----
             STORAGE =        7464.7754               STORAGE =           0.0000
       CONSTANT HEAD =           0.0000         CONSTANT HEAD =           0.0000
               WELLS =           0.0000                 WELLS =           0.0000
     HEAD DEP BOUNDS =      236208.1094       HEAD DEP BOUNDS =        1200.8954

           TOTAL OUT =      243672.8906             TOTAL OUT =        1200.8954

            IN - OUT =           6.8125              IN - OUT =       3.8086E-02

 PERCENT DISCREPANCY =           0.00     PERCENT DISCREPANCY =           0.00






         TIME SUMMARY AT END OF TIME STEP   97 IN STRESS PERIOD    3
                    SECONDS     MINUTES      HOURS       DAYS        YEARS
                    -----------------------------------------------------------
   TIME STEP LENGTH  86400.      1440.0      24.000      1.0000     2.73785E-03
 STRESS PERIOD TIME 8.38080E+06 1.39680E+05  2328.0      97.000     0.26557    
         TOTAL TIME 1.71072E+07 2.85120E+05  4752.0      198.00     0.54209    
1
 
 SOLVING FOR HEAD 

 OUTPUT CONTROL FOR STRESS PERIOD    3   TIME STEP   98
    SAVE HEAD FOR ALL LAYERS
    SAVE DRAWDOWN FOR ALL LAYERS
    SAVE BUDGET
    PRINT HEAD FOR ALL LAYERS
    PRINT BUDGET
 UBDSV1 SAVING "         STORAGE" ON UNIT  53 AT TIME STEP 98, STRESS PERIOD   3
 UBDSV2 SAVING "   CONSTANT HEAD" ON UNIT  53 AT TIME STEP 98, STRESS PERIOD   3
 UBDSV1 SAVING "FLOW RIGHT FACE " ON UNIT  53 AT TIME STEP 98, STRESS PERIOD   3
 UBDSV1 SAVING "FLOW FRONT FACE " ON UNIT  53 AT TIME STEP 98, STRESS PERIOD   3
 UBDSV1 SAVING "FLOW LOWER FACE " ON UNIT  53 AT TIME STEP 98, STRESS PERIOD   3

 SAVING SATURATED THICKNESS AND FLOW TERMS ON UNIT   54 FOR MT3DMS
 BY THE LINK-MT3DMS PACKAGE V7 AT TIME STEP   98, STRESS PERIOD    3

1
              HEAD IN LAYER   1 AT END OF TIME STEP  98 IN STRESS PERIOD    3
  ---------------------------------------------------------------------------

            1           2           3           4           5           6           7           8           9          10
 ........................................................................................................................
   1    9.998       8.953       7.895       6.822       5.733       4.626       3.499       2.352       1.187      1.5484E-03
   2    9.998       8.955       7.898       6.827       5.740       4.634       3.506       2.357       1.190      1.5518E-03
   3    9.998       8.958       7.904       6.838       5.755       4.652       3.521       2.367       1.194      1.5584E-03
   4    9.998       8.962       7.913       6.853       5.780       4.684       3.545       2.382       1.201      1.5677E-03
   5    9.998       8.965       7.922       6.872       5.817       4.750       3.582       2.400       1.209      1.5777E-03
   6    9.998       8.967       7.927       6.885       5.859       4.930       3.626       2.413       1.213      1.5837E-03
   7    9.998       8.966       7.924       6.875       5.820       4.754       3.585       2.402       1.210      1.5794E-03
   8    9.998       8.964       7.917       6.859       5.787       4.691       3.552       2.387       1.204      1.5712E-03
   9    9.998       8.961       7.911       6.847       5.766       4.663       3.531       2.375       1.199      1.5641E-03
  10    9.998       8.960       7.908       6.841       5.757       4.651       3.521       2.369       1.196      1.5602E-03
1
              HEAD IN LAYER   2 AT END OF TIME STEP  98 IN STRESS PERIOD    3
  ---------------------------------------------------------------------------

            1           2           3           4           5           6           7           8           9          10
 ........................................................................................................................
   1    9.998       8.952       7.893       6.820       5.731       4.624       3.497       2.350       1.185      2.5452E-03
   2    9.998       8.953       7.896       6.826       5.738       4.632       3.504       2.355       1.188      2.5504E-03
   3    9.998       8.956       7.903       6.836       5.753       4.650       3.519       2.365       1.192      2.5609E-03
   4    9.998       8.960       7.911       6.852       5.778       4.682       3.543       2.380       1.199      2.5756E-03
   5    9.998       8.964       7.920       6.870       5.814       4.747       3.580       2.398       1.207      2.5915E-03
   6    9.998       8.966       7.925       6.883       5.856       4.952       3.623       2.411       1.211      2.6008E-03
   7    9.998       8.965       7.922       6.873       5.818       4.751       3.583       2.400       1.208      2.5941E-03
   8    9.998       8.962       7.915       6.857       5.785       4.689       3.550       2.384       1.202      2.5812E-03
   9    9.998       8.959       7.909       6.845       5.764       4.661       3.529       2.373       1.197      2.5699E-03
  10    9.998       8.958       7.906       6.839       5.755       4.649       3.519       2.366       1.194      2.5637E-03
1
              HEAD IN LAYER   3 AT END OF TIME STEP  98 IN STRESS PERIOD    3
  ---------------------------------------------------------------------------

            1           2           3           4           5           6           7           8           9          10
 ........................................................................................................................
   1    9.998       8.950       7.891       6.819       5.730       4.622       3.495       2.348       1.183      2.5951E-03
   2    9.998       8.952       7.895       6.824       5.737       4.630       3.502       2.353       1.186      2.6005E-03
   3    9.998       8.955       7.901       6.834       5.752       4.648       3.517       2.363       1.191      2.6111E-03
   4    9.998       8.959       7.910       6.850       5.776       4.680       3.541       2.378       1.197      2.6261E-03
   5    9.998       8.962       7.919       6.868       5.812       4.742       3.577       2.396       1.205      2.6421E-03
   6    9.998       8.964       7.924       6.881       5.851       4.884       3.617       2.408       1.209      2.6516E-03
   7    9.998       8.963       7.921       6.871       5.815       4.745       3.580       2.398       1.206      2.6448E-03
   8    9.998       8.961       7.914       6.856       5.783       4.687       3.548       2.382       1.200      2.6317E-03
   9    9.998       8.958       7.908       6.844       5.763       4.659       3.527       2.371       1.195      2.6202E-03
  10    9.998       8.957       7.904       6.837       5.753       4.647       3.517       2.364       1.192      2.6139E-03
1
              HEAD IN LAYER   4 AT END OF TIME STEP  98 IN STRESS PERIOD    3
  ---------------------------------------------------------------------------

            1           2           3           4           5           6           7           8           9          10
 ........................................................................................................................
   1    9.998       8.949       7.890       6.818       5.729       4.621       3.494       2.347       1.182      2.5948E-03
   2    9.998       8.951       7.894       6.823       5.736       4.629       3.501       2.352       1.185      2.6002E-03
   3    9.998       8.954       7.900       6.833       5.751       4.646       3.515       2.362       1.189      2.6108E-03
   4    9.998       8.958       7.909       6.849       5.775       4.678       3.540       2.376       1.196      2.6257E-03
   5    9.998       8.961       7.918       6.867       5.811       4.738       3.575       2.394       1.203      2.6417E-03
   6    9.998       8.963       7.923       6.880       5.847       4.845       3.612       2.407       1.208      2.6511E-03
   7    9.998       8.962       7.920       6.870       5.814       4.741       3.578       2.396       1.205      2.6444E-03
   8    9.998       8.960       7.913       6.855       5.782       4.685       3.546       2.381       1.199      2.6313E-03
   9    9.998       8.957       7.907       6.843       5.762       4.658       3.526       2.369       1.193      2.6198E-03
  10    9.998       8.956       7.903       6.836       5.752       4.646       3.516       2.363       1.191      2.6136E-03
1
              HEAD IN LAYER   5 AT END OF TIME STEP  98 IN STRESS PERIOD    3
  ---------------------------------------------------------------------------

            1           2           3           4           5           6           7           8           9          10
 ........................................................................................................................
   1    9.998       8.949       7.890       6.817       5.728       4.621       3.493       2.346       1.182      2.5937E-03
   2    9.998       8.951       7.893       6.822       5.735       4.628       3.500       2.351       1.184      2.5990E-03
   3    9.998       8.954       7.900       6.833       5.750       4.646       3.515       2.361       1.189      2.6096E-03
   4    9.998       8.957       7.908       6.848       5.775       4.678       3.539       2.376       1.196      2.6245E-03
   5    9.998       8.961       7.917       6.866       5.810       4.735       3.575       2.393       1.203      2.6405E-03
   6    9.998       8.963       7.922       6.879       5.845       4.826       3.610       2.406       1.207      2.6498E-03
   7    9.998       8.962       7.919       6.869       5.813       4.738       3.577       2.396       1.204      2.6431E-03
   8    9.998       8.959       7.912       6.854       5.781       4.685       3.545       2.380       1.198      2.6301E-03
   9    9.998       8.957       7.906       6.842       5.761       4.657       3.525       2.369       1.193      2.6186E-03
  10    9.998       8.955       7.903       6.836       5.751       4.645       3.515       2.362       1.190      2.6124E-03

 HEAD WILL BE SAVED ON UNIT   51 AT END OF TIME STEP   98, STRESS PERIOD    3

 DRAWDOWN WILL BE SAVED ON UNIT   52 AT END OF TIME STEP   98, STRESS PERIOD    3
1
  VOLUMETRIC BUDGET FOR ENTIRE MODEL AT END OF TIME STEP   98, STRESS PERIOD   3
  ------------------------------------------------------------------------------

     CUMULATIVE VOLUMES      L**3       RATES FOR THIS TIME STEP      L**3/T
     ------------------                 ------------------------

           IN:                                      IN:
           ---                                      ---
             STORAGE =         897.7881               STORAGE =           3.0628
       CONSTANT HEAD =           0.0000         CONSTANT HEAD =           0.0000
               WELLS =       15880.0000                 WELLS =          60.0000
     HEAD DEP BOUNDS =      228102.8438       HEAD DEP BOUNDS =        1137.8529

            TOTAL IN =      244880.6250              TOTAL IN =        1200.9156

          OUT:                                     OUT:
          ----                                     ----
             STORAGE =        7464.7754               STORAGE =           0.0000
       CONSTANT HEAD =           0.0000         CONSTANT HEAD =           0.0000
               WELLS =           0.0000                 WELLS =           0.0000
     HEAD DEP BOUNDS =      237408.9844       HEAD DEP BOUNDS =        1200.8748

           TOTAL OUT =      244873.7656             TOTAL OUT =        1200.8748

            IN - OUT =           6.8594              IN - OUT =       4.0894E-02

 PERCENT DISCREPANCY =           0.00     PERCENT DISCREPANCY =           0.00






         TIME SUMMARY AT END OF TIME STEP   98 IN STRESS PERIOD    3
                    SECONDS     MINUTES      HOURS       DAYS        YEARS
                    -----------------------------------------------------------
   TIME STEP LENGTH  86400.      1440.0      24.000      1.0000     2.73785E-03
 STRESS PERIOD TIME 8.46720E+06 1.41120E+05  2352.0      98.000     0.26831    
         TOTAL TIME 1.71936E+07 2.86560E+05  4776.0      199.00     0.54483    
1
 
 SOLVING FOR HEAD 

 OUTPUT CONTROL FOR STRESS PERIOD    3   TIME STEP   99
    SAVE HEAD FOR ALL LAYERS
    SAVE DRAWDOWN FOR ALL LAYERS
    SAVE BUDGET
    PRINT HEAD FOR ALL LAYERS
    PRINT BUDGET
 UBDSV1 SAVING "         STORAGE" ON UNIT  53 AT TIME STEP 99, STRESS PERIOD   3
 UBDSV2 SAVING "   CONSTANT HEAD" ON UNIT  53 AT TIME STEP 99, STRESS PERIOD   3
 UBDSV1 SAVING "FLOW RIGHT FACE " ON UNIT  53 AT TIME STEP 99, STRESS PERIOD   3
 UBDSV1 SAVING "FLOW FRONT FACE " ON UNIT  53 AT TIME STEP 99, STRESS PERIOD   3
 UBDSV1 SAVING "FLOW LOWER FACE " ON UNIT  53 AT TIME STEP 99, STRESS PERIOD   3

 SAVING SATURATED THICKNESS AND FLOW TERMS ON UNIT   54 FOR MT3DMS
 BY THE LINK-MT3DMS PACKAGE V7 AT TIME STEP   99, STRESS PERIOD    3

1
              HEAD IN LAYER   1 AT END OF TIME STEP  99 IN STRESS PERIOD    3
  ---------------------------------------------------------------------------

            1           2           3           4           5           6           7           8           9          10
 ........................................................................................................................
   1    9.998       8.953       7.895       6.822       5.733       4.626       3.499       2.352       1.187      1.5484E-03
   2    9.998       8.955       7.898       6.827       5.740       4.634       3.506       2.357       1.190      1.5518E-03
   3    9.998       8.958       7.904       6.838       5.755       4.652       3.521       2.367       1.194      1.5584E-03
   4    9.998       8.962       7.913       6.853       5.780       4.684       3.545       2.382       1.201      1.5677E-03
   5    9.998       8.965       7.922       6.872       5.816       4.750       3.582       2.400       1.209      1.5777E-03
   6    9.998       8.967       7.927       6.885       5.859       4.930       3.626       2.413       1.213      1.5837E-03
   7    9.998       8.966       7.924       6.874       5.820       4.754       3.585       2.402       1.210      1.5794E-03
   8    9.998       8.964       7.917       6.859       5.787       4.691       3.552       2.387       1.204      1.5712E-03
   9    9.998       8.961       7.911       6.847       5.766       4.663       3.531       2.375       1.199      1.5641E-03
  10    9.998       8.960       7.908       6.841       5.757       4.651       3.521       2.369       1.196      1.5602E-03
1
              HEAD IN LAYER   2 AT END OF TIME STEP  99 IN STRESS PERIOD    3
  ---------------------------------------------------------------------------

            1           2           3           4           5           6           7           8           9          10
 ........................................................................................................................
   1    9.998       8.952       7.893       6.820       5.731       4.624       3.497       2.350       1.185      2.5451E-03
   2    9.998       8.953       7.896       6.825       5.738       4.632       3.504       2.355       1.187      2.5504E-03
   3    9.998       8.956       7.903       6.836       5.753       4.649       3.519       2.365       1.192      2.5609E-03
   4    9.998       8.960       7.911       6.851       5.778       4.682       3.543       2.380       1.199      2.5756E-03
   5    9.998       8.964       7.920       6.870       5.814       4.747       3.580       2.398       1.207      2.5914E-03
   6    9.998       8.965       7.925       6.883       5.856       4.952       3.623       2.411       1.211      2.6007E-03
   7    9.998       8.965       7.922       6.872       5.817       4.751       3.583       2.400       1.208      2.5940E-03
   8    9.998       8.962       7.915       6.857       5.785       4.689       3.549       2.384       1.202      2.5811E-03
   9    9.998       8.959       7.909       6.845       5.764       4.661       3.529       2.372       1.197      2.5698E-03
  10    9.998       8.958       7.906       6.839       5.755       4.649       3.519       2.366       1.194      2.5636E-03
1
              HEAD IN LAYER   3 AT END OF TIME STEP  99 IN STRESS PERIOD    3
  ---------------------------------------------------------------------------

            1           2           3           4           5           6           7           8           9          10
 ........................................................................................................................
   1    9.998       8.950       7.891       6.819       5.730       4.622       3.495       2.348       1.183      2.5951E-03
   2    9.998       8.952       7.895       6.824       5.737       4.630       3.502       2.353       1.186      2.6005E-03
   3    9.998       8.955       7.901       6.834       5.752       4.648       3.517       2.363       1.191      2.6111E-03
   4    9.998       8.959       7.910       6.850       5.776       4.680       3.541       2.378       1.197      2.6260E-03
   5    9.998       8.962       7.919       6.868       5.812       4.742       3.577       2.396       1.205      2.6421E-03
   6    9.998       8.964       7.924       6.881       5.851       4.884       3.617       2.408       1.209      2.6515E-03
   7    9.998       8.963       7.920       6.871       5.815       4.745       3.580       2.398       1.206      2.6447E-03
   8    9.998       8.961       7.914       6.856       5.783       4.687       3.547       2.382       1.200      2.6316E-03
   9    9.998       8.958       7.908       6.844       5.763       4.659       3.527       2.371       1.195      2.6202E-03
  10    9.998       8.957       7.904       6.837       5.753       4.647       3.517       2.364       1.192      2.6139E-03
1
              HEAD IN LAYER   4 AT END OF TIME STEP  99 IN STRESS PERIOD    3
  ---------------------------------------------------------------------------

            1           2           3           4           5           6           7           8           9          10
 ........................................................................................................................
   1    9.998       8.949       7.890       6.818       5.729       4.621       3.494       2.347       1.182      2.5948E-03
   2    9.998       8.951       7.894       6.823       5.736       4.629       3.501       2.352       1.185      2.6002E-03
   3    9.998       8.954       7.900       6.833       5.751       4.646       3.515       2.362       1.189      2.6107E-03
   4    9.998       8.958       7.909       6.849       5.775       4.678       3.540       2.376       1.196      2.6256E-03
   5    9.998       8.961       7.918       6.867       5.811       4.738       3.575       2.394       1.203      2.6416E-03
   6    9.998       8.963       7.923       6.880       5.847       4.844       3.612       2.407       1.208      2.6510E-03
   7    9.998       8.962       7.919       6.870       5.814       4.741       3.578       2.396       1.205      2.6443E-03
   8    9.998       8.960       7.913       6.854       5.782       4.685       3.546       2.381       1.199      2.6312E-03
   9    9.998       8.957       7.907       6.842       5.761       4.658       3.526       2.369       1.193      2.6198E-03
  10    9.998       8.956       7.903       6.836       5.752       4.646       3.516       2.363       1.191      2.6135E-03
1
              HEAD IN LAYER   5 AT END OF TIME STEP  99 IN STRESS PERIOD    3
  ---------------------------------------------------------------------------

            1           2           3           4           5           6           7           8           9          10
 ........................................................................................................................
   1    9.998       8.949       7.890       6.817       5.728       4.621       3.493       2.346       1.182      2.5937E-03
   2    9.998       8.951       7.893       6.822       5.735       4.628       3.500       2.351       1.184      2.5990E-03
   3    9.998       8.953       7.899       6.833       5.750       4.646       3.515       2.361       1.189      2.6096E-03
   4    9.998       8.957       7.908       6.848       5.774       4.678       3.539       2.376       1.196      2.6244E-03
   5    9.998       8.961       7.917       6.866       5.810       4.735       3.574       2.393       1.203      2.6404E-03
   6    9.998       8.963       7.922       6.879       5.844       4.826       3.610       2.406       1.207      2.6497E-03
   7    9.998       8.962       7.919       6.869       5.813       4.738       3.577       2.396       1.204      2.6430E-03
   8    9.998       8.959       7.912       6.854       5.781       4.685       3.545       2.380       1.198      2.6300E-03
   9    9.998       8.957       7.906       6.842       5.761       4.657       3.525       2.369       1.193      2.6186E-03
  10    9.998       8.955       7.903       6.836       5.751       4.645       3.515       2.362       1.190      2.6123E-03

 HEAD WILL BE SAVED ON UNIT   51 AT END OF TIME STEP   99, STRESS PERIOD    3

 DRAWDOWN WILL BE SAVED ON UNIT   52 AT END OF TIME STEP   99, STRESS PERIOD    3
1
  VOLUMETRIC BUDGET FOR ENTIRE MODEL AT END OF TIME STEP   99, STRESS PERIOD   3
  ------------------------------------------------------------------------------

     CUMULATIVE VOLUMES      L**3       RATES FOR THIS TIME STEP      L**3/T
     ------------------                 ------------------------

           IN:                                      IN:
           ---                                      ---
             STORAGE =         900.8165               STORAGE =           3.0283
       CONSTANT HEAD =           0.0000         CONSTANT HEAD =           0.0000
               WELLS =       15940.0000                 WELLS =          60.0000
     HEAD DEP BOUNDS =      229240.7031       HEAD DEP BOUNDS =        1137.8668

            TOTAL IN =      246081.5156              TOTAL IN =        1200.8951

          OUT:                                     OUT:
          ----                                     ----
             STORAGE =        7464.7754               STORAGE =           0.0000
       CONSTANT HEAD =           0.0000         CONSTANT HEAD =           0.0000
               WELLS =           0.0000                 WELLS =           0.0000
     HEAD DEP BOUNDS =      238609.8438       HEAD DEP BOUNDS =        1200.8553

           TOTAL OUT =      246074.6250             TOTAL OUT =        1200.8553

            IN - OUT =           6.8906              IN - OUT =       3.9795E-02

 PERCENT DISCREPANCY =           0.00     PERCENT DISCREPANCY =           0.00






         TIME SUMMARY AT END OF TIME STEP   99 IN STRESS PERIOD    3
                    SECONDS     MINUTES      HOURS       DAYS        YEARS
                    -----------------------------------------------------------
   TIME STEP LENGTH  86400.      1440.0      24.000      1.0000     2.73785E-03
 STRESS PERIOD TIME 8.55360E+06 1.42560E+05  2376.0      99.000     0.27105    
         TOTAL TIME 1.72800E+07 2.88000E+05  4800.0      200.00     0.54757    
1
 
 SOLVING FOR HEAD 

 OUTPUT CONTROL FOR STRESS PERIOD    3   TIME STEP  100
    SAVE HEAD FOR ALL LAYERS
    SAVE DRAWDOWN FOR ALL LAYERS
    SAVE BUDGET
    PRINT HEAD FOR ALL LAYERS
    PRINT BUDGET
 UBDSV1 SAVING "         STORAGE" ON UNIT  53 AT TIME STEP100, STRESS PERIOD   3
 UBDSV2 SAVING "   CONSTANT HEAD" ON UNIT  53 AT TIME STEP100, STRESS PERIOD   3
 UBDSV1 SAVING "FLOW RIGHT FACE " ON UNIT  53 AT TIME STEP100, STRESS PERIOD   3
 UBDSV1 SAVING "FLOW FRONT FACE " ON UNIT  53 AT TIME STEP100, STRESS PERIOD   3
 UBDSV1 SAVING "FLOW LOWER FACE " ON UNIT  53 AT TIME STEP100, STRESS PERIOD   3

 SAVING SATURATED THICKNESS AND FLOW TERMS ON UNIT   54 FOR MT3DMS
 BY THE LINK-MT3DMS PACKAGE V7 AT TIME STEP  100, STRESS PERIOD    3

1
              HEAD IN LAYER   1 AT END OF TIME STEP 100 IN STRESS PERIOD    3
  ---------------------------------------------------------------------------

            1           2           3           4           5           6           7           8           9          10
 ........................................................................................................................
   1    9.998       8.953       7.895       6.822       5.733       4.626       3.499       2.352       1.187      1.5484E-03
   2    9.998       8.955       7.898       6.827       5.740       4.634       3.506       2.357       1.190      1.5517E-03
   3    9.998       8.958       7.904       6.838       5.755       4.652       3.521       2.367       1.194      1.5584E-03
   4    9.998       8.962       7.913       6.853       5.780       4.684       3.545       2.382       1.201      1.5677E-03
   5    9.998       8.965       7.922       6.872       5.816       4.750       3.582       2.400       1.209      1.5777E-03
   6    9.998       8.967       7.927       6.885       5.859       4.930       3.626       2.413       1.213      1.5837E-03
   7    9.998       8.966       7.924       6.874       5.820       4.754       3.585       2.402       1.210      1.5793E-03
   8    9.998       8.964       7.917       6.859       5.787       4.691       3.552       2.387       1.204      1.5712E-03
   9    9.998       8.961       7.911       6.847       5.766       4.663       3.531       2.375       1.199      1.5640E-03
  10    9.998       8.960       7.908       6.841       5.757       4.651       3.521       2.368       1.196      1.5601E-03
1
              HEAD IN LAYER   2 AT END OF TIME STEP 100 IN STRESS PERIOD    3
  ---------------------------------------------------------------------------

            1           2           3           4           5           6           7           8           9          10
 ........................................................................................................................
   1    9.998       8.952       7.893       6.820       5.731       4.624       3.497       2.350       1.185      2.5451E-03
   2    9.998       8.953       7.896       6.825       5.738       4.632       3.504       2.355       1.187      2.5504E-03
   3    9.998       8.956       7.903       6.836       5.753       4.649       3.518       2.365       1.192      2.5608E-03
   4    9.998       8.960       7.911       6.851       5.778       4.682       3.543       2.380       1.199      2.5755E-03
   5    9.998       8.964       7.920       6.870       5.814       4.747       3.580       2.398       1.207      2.5913E-03
   6    9.998       8.965       7.925       6.883       5.856       4.952       3.622       2.411       1.211      2.6007E-03
   7    9.998       8.965       7.922       6.872       5.817       4.751       3.583       2.400       1.208      2.5940E-03
   8    9.998       8.962       7.915       6.857       5.785       4.689       3.549       2.384       1.202      2.5810E-03
   9    9.998       8.959       7.909       6.845       5.764       4.661       3.529       2.372       1.196      2.5698E-03
  10    9.998       8.958       7.906       6.839       5.755       4.649       3.519       2.366       1.194      2.5636E-03
1
              HEAD IN LAYER   3 AT END OF TIME STEP 100 IN STRESS PERIOD    3
  ---------------------------------------------------------------------------

            1           2           3           4           5           6           7           8           9          10
 ........................................................................................................................
   1    9.998       8.950       7.891       6.819       5.730       4.622       3.495       2.348       1.183      2.5951E-03
   2    9.998       8.952       7.895       6.824       5.737       4.630       3.502       2.353       1.186      2.6005E-03
   3    9.998       8.955       7.901       6.834       5.752       4.648       3.517       2.363       1.190      2.6111E-03
   4    9.998       8.959       7.910       6.850       5.776       4.680       3.541       2.378       1.197      2.6260E-03
   5    9.998       8.962       7.918       6.868       5.812       4.742       3.577       2.396       1.205      2.6420E-03
   6    9.998       8.964       7.924       6.881       5.851       4.884       3.617       2.408       1.209      2.6515E-03
   7    9.998       8.963       7.920       6.871       5.815       4.745       3.580       2.398       1.206      2.6447E-03
   8    9.998       8.961       7.914       6.856       5.783       4.687       3.547       2.382       1.200      2.6316E-03
   9    9.998       8.958       7.907       6.844       5.763       4.659       3.527       2.370       1.195      2.6201E-03
  10    9.998       8.957       7.904       6.837       5.753       4.647       3.517       2.364       1.192      2.6138E-03
1
              HEAD IN LAYER   4 AT END OF TIME STEP 100 IN STRESS PERIOD    3
  ---------------------------------------------------------------------------

            1           2           3           4           5           6           7           8           9          10
 ........................................................................................................................
   1    9.998       8.949       7.890       6.818       5.729       4.621       3.494       2.347       1.182      2.5948E-03
   2    9.998       8.951       7.894       6.823       5.736       4.629       3.501       2.352       1.184      2.6001E-03
   3    9.998       8.954       7.900       6.833       5.751       4.646       3.515       2.362       1.189      2.6107E-03
   4    9.998       8.958       7.909       6.849       5.775       4.678       3.540       2.376       1.196      2.6256E-03
   5    9.998       8.961       7.917       6.867       5.810       4.737       3.575       2.394       1.203      2.6416E-03
   6    9.998       8.963       7.923       6.880       5.847       4.844       3.612       2.407       1.208      2.6510E-03
   7    9.998       8.962       7.919       6.870       5.814       4.741       3.578       2.396       1.205      2.6442E-03
   8    9.998       8.960       7.913       6.854       5.782       4.685       3.546       2.381       1.199      2.6312E-03
   9    9.998       8.957       7.906       6.842       5.761       4.658       3.526       2.369       1.193      2.6197E-03
  10    9.998       8.956       7.903       6.836       5.752       4.646       3.516       2.363       1.191      2.6135E-03
1
              HEAD IN LAYER   5 AT END OF TIME STEP 100 IN STRESS PERIOD    3
  ---------------------------------------------------------------------------

            1           2           3           4           5           6           7           8           9          10
 ........................................................................................................................
   1    9.998       8.949       7.890       6.817       5.728       4.621       3.493       2.346       1.181      2.5937E-03
   2    9.998       8.951       7.893       6.822       5.735       4.628       3.500       2.351       1.184      2.5990E-03
   3    9.998       8.953       7.899       6.833       5.750       4.646       3.515       2.361       1.189      2.6095E-03
   4    9.998       8.957       7.908       6.848       5.774       4.678       3.539       2.376       1.196      2.6244E-03
   5    9.998       8.961       7.917       6.866       5.810       4.735       3.574       2.393       1.203      2.6404E-03
   6    9.998       8.963       7.922       6.879       5.844       4.826       3.610       2.406       1.207      2.6497E-03
   7    9.998       8.962       7.919       6.869       5.813       4.738       3.577       2.396       1.204      2.6430E-03
   8    9.998       8.959       7.912       6.854       5.781       4.684       3.545       2.380       1.198      2.6300E-03
   9    9.998       8.957       7.906       6.842       5.761       4.657       3.525       2.369       1.193      2.6185E-03
  10    9.998       8.955       7.902       6.836       5.751       4.645       3.515       2.362       1.190      2.6123E-03

 HEAD WILL BE SAVED ON UNIT   51 AT END OF TIME STEP  100, STRESS PERIOD    3

 DRAWDOWN WILL BE SAVED ON UNIT   52 AT END OF TIME STEP  100, STRESS PERIOD    3
1
  VOLUMETRIC BUDGET FOR ENTIRE MODEL AT END OF TIME STEP  100, STRESS PERIOD   3
  ------------------------------------------------------------------------------

     CUMULATIVE VOLUMES      L**3       RATES FOR THIS TIME STEP      L**3/T
     ------------------                 ------------------------

           IN:                                      IN:
           ---                                      ---
             STORAGE =         903.8112               STORAGE =           2.9947
       CONSTANT HEAD =           0.0000         CONSTANT HEAD =           0.0000
               WELLS =       16000.0000                 WELLS =          60.0000
     HEAD DEP BOUNDS =      230378.5781       HEAD DEP BOUNDS =        1137.8807

            TOTAL IN =      247282.3906              TOTAL IN =        1200.8754

          OUT:                                     OUT:
          ----                                     ----
             STORAGE =        7464.7754               STORAGE =           0.0000
       CONSTANT HEAD =           0.0000         CONSTANT HEAD =           0.0000
               WELLS =           0.0000                 WELLS =           0.0000
     HEAD DEP BOUNDS =      239810.6875       HEAD DEP BOUNDS =        1200.8362

           TOTAL OUT =      247275.4688             TOTAL OUT =        1200.8362

            IN - OUT =           6.9219              IN - OUT =       3.9185E-02

 PERCENT DISCREPANCY =           0.00     PERCENT DISCREPANCY =           0.00






         TIME SUMMARY AT END OF TIME STEP  100 IN STRESS PERIOD    3
                    SECONDS     MINUTES      HOURS       DAYS        YEARS
                    -----------------------------------------------------------
   TIME STEP LENGTH  86400.      1440.0      24.000      1.0000     2.73785E-03
 STRESS PERIOD TIME 8.64000E+06 1.44000E+05  2400.0      100.00     0.27379    
         TOTAL TIME 1.73664E+07 2.89440E+05  4824.0      201.00     0.55031    
1

 Run end date and time (yyyy/mm/dd hh:mm:ss): 2019/07/29 13:15:29
 Elapsed run time:  0.545 Seconds

